REMARK SMILES C/C(=N\NC(=O)c1nc(Cl)c(Cl)c(N)c1Cl)c1cc(C)ccc1O
REMARK SMILES IDX 2 1 3 2 1 3 17 4 20 5 19 6 18 7 21 8 22 9 23 10 24 11 4 13
REMARK SMILES IDX 5 14 6 16 7 17 8 18 15 19 9 20 13 21 16 22 11 23 10 24 12 25
REMARK SMILES IDX 14 26
REMARK H PARENT 24 12 4 15 14 27 14 28
REMARK Flexibility Score: inf
ROOT
ATOM      1  C   UNL     1      -2.516   3.881   0.047  1.00  0.00     0.069 C 
ATOM      2  N   UNL     1      -3.636   3.225   0.054  1.00  0.00    -0.177 NA
ATOM      3  C   UNL     1      -2.526   5.388   0.055  1.00  0.00     0.069 C 
ENDROOT
BRANCH   1   4
ATOM      4  C   UNL     1      -1.235   3.153   0.031  1.00  0.00     0.040 A 
ATOM      5  C   UNL     1       2.469   3.925  -0.001  1.00  0.00     0.044 C 
ATOM      6  C   UNL     1       1.167   3.167   0.008  1.00  0.00    -0.050 A 
ATOM      7  C   UNL     1      -0.028   3.855   0.023  1.00  0.00     0.017 A 
ATOM      8  C   UNL     1       1.175   1.782   0.000  1.00  0.00     0.007 A 
ATOM      9  C   UNL     1      -0.013   1.076   0.008  1.00  0.00     0.047 A 
ATOM     10  C   UNL     1      -1.222   1.751   0.017  1.00  0.00     0.124 A 
BRANCH  10  11
ATOM     11  O   UNL     1      -2.390   1.058   0.019  1.00  0.00    -0.507 OA
ATOM     12  H   UNL     1      -2.334   0.467   0.812  1.00  0.00     0.293 HD
ENDBRANCH  10  11
ENDBRANCH   1   4
BRANCH   2  13
ATOM     13  N   UNL     1      -4.854   3.918   0.070  1.00  0.00    -0.241 N 
ATOM     14  C   UNL     1      -6.017   3.237   0.077  1.00  0.00     0.291 C 
ATOM     15  H   UNL     1      -4.860   4.948   0.075  1.00  0.00     0.194 HD
ATOM     16  O   UNL     1      -6.009   2.021   0.070  1.00  0.00    -0.265 OA
BRANCH  14  17
ATOM     17  C   UNL     1      -7.303   3.969   0.093  1.00  0.00     0.152 A 
ATOM     18  N   UNL     1      -7.304   5.298   0.100  1.00  0.00    -0.228 NA
ATOM     19  C   UNL     1      -8.500   3.258   0.095  1.00  0.00     0.097 A 
ATOM     20  C   UNL     1      -8.423   5.991   0.115  1.00  0.00     0.150 A 
ATOM     21  C   UNL     1      -9.704   3.963   0.116  1.00  0.00     0.075 A 
ATOM     22  Cl  UNL     1      -8.496   1.522   0.078  1.00  0.00    -0.079 Cl
ATOM     23  C   UNL     1      -9.655   5.356   0.123  1.00  0.00     0.102 A 
ATOM     24  Cl  UNL     1      -8.355   7.726   0.124  1.00  0.00    -0.061 Cl
ATOM     25  Cl  UNL     1     -11.121   6.286   0.142  1.00  0.00    -0.079 Cl
BRANCH  21  26
ATOM     26  N   UNL     1     -10.925   3.292   0.124  1.00  0.00    -0.396 N 
ATOM     27  H   UNL     1     -10.935   2.262   0.115  1.00  0.00     0.156 HD
ATOM     28  H   UNL     1     -11.810   3.818   0.140  1.00  0.00     0.156 HD
ENDBRANCH  21  26
ENDBRANCH  14  17
ENDBRANCH   2  13
TORSDOF 5
