REMARK SMILES c1ccc(-c2cn([C@H]3CO[C@@H]4[C@@H]3OC[C@H]4[NH2+]Cc3c[nH]c4ccccc34)nn2)cc1
REMARK SMILES IDX 8 1 9 2 10 3 11 4 12 5 13 6 14 7 15 8 7 9 5 10 28 11 6 12
REMARK SMILES IDX 27 13 4 14 1 15 30 16 2 17 29 18 3 19 16 20 17 23 18 24
REMARK SMILES IDX 26 25 19 26 21 27 25 28 20 29 22 30 24 31 23 33
REMARK H PARENT 16 21 16 22 20 32
REMARK Flexibility Score: inf
ROOT
ATOM      1  C   UNL     1       2.720  -5.446  -0.053  1.00  0.00     0.167 C 
ATOM      2  C   UNL     1       4.090  -5.173  -0.746  1.00  0.00     0.191 C 
ATOM      3  O   UNL     1       5.123  -5.518   0.227  1.00  0.00    -0.367 OA
ATOM      4  C   UNL     1       4.524  -6.511   1.018  1.00  0.00     0.209 C 
ATOM      5  C   UNL     1       3.140  -5.828   1.347  1.00  0.00     0.180 C 
ATOM      6  O   UNL     1       2.540  -6.821   2.138  1.00  0.00    -0.367 OA
ATOM      7  C   UNL     1       3.574  -7.167   3.111  1.00  0.00     0.228 C 
ATOM      8  C   UNL     1       4.943  -6.893   2.419  1.00  0.00     0.241 C 
ENDROOT
BRANCH   1   9
ATOM      9  N   UNL     1       1.892  -4.238  -0.039  1.00  0.00    -0.244 N 
ATOM     10  C   UNL     1       1.246  -2.166  -0.021  1.00  0.00     0.113 A 
ATOM     11  N   UNL     1       0.185  -2.993  -0.015  1.00  0.00    -0.130 NA
ATOM     12  C   UNL     1       2.351  -2.966  -0.041  1.00  0.00     0.140 A 
ATOM     13  N   UNL     1       0.606  -4.207  -0.026  1.00  0.00    -0.066 NA
BRANCH  10  14
ATOM     14  C   UNL     1       1.219  -0.682  -0.013  1.00  0.00     0.004 A 
ATOM     15  C   UNL     1       1.170   2.086   0.002  1.00  0.00     0.000 A 
ATOM     16  C   UNL     1       2.381   1.419  -0.013  1.00  0.00     0.001 A 
ATOM     17  C   UNL     1      -0.017   1.376   0.010  1.00  0.00     0.001 A 
ATOM     18  C   UNL     1       2.412   0.039  -0.021  1.00  0.00     0.010 A 
ATOM     19  C   UNL     1       0.002  -0.004   0.002  1.00  0.00     0.010 A 
ENDBRANCH  10  14
ENDBRANCH   1   9
BRANCH   8  20
ATOM     20  N   UNL     1       5.777  -8.102   2.403  1.00  0.00    -0.336 N 
ATOM     21  H   UNL     1       5.170  -8.934   2.394  1.00  0.00     0.346 HD
ATOM     22  H   UNL     1       6.357  -8.105   1.552  1.00  0.00     0.346 HD
BRANCH  20  23
ATOM     23  C   UNL     1       6.651  -8.154   3.583  1.00  0.00     0.299 C 
BRANCH  23  24
ATOM     24  C   UNL     1       7.490  -9.406   3.532  1.00  0.00     0.031 A 
ATOM     25  C   UNL     1       8.704  -9.609   2.738  1.00  0.00     0.008 A 
ATOM     26  C   UNL     1       7.262 -10.547   4.201  1.00  0.00     0.093 A 
ATOM     27  C   UNL     1       9.134 -10.920   3.015  1.00  0.00     0.046 A 
ATOM     28  C   UNL     1       9.429  -8.811   1.852  1.00  0.00     0.011 A 
ATOM     29  N   UNL     1       8.234 -11.463   3.905  1.00  0.00    -0.361 N 
ATOM     30  C   UNL     1      10.283 -11.405   2.400  1.00  0.00     0.026 A 
ATOM     31  C   UNL     1      10.553  -9.309   1.255  1.00  0.00     0.001 A 
ATOM     32  H   UNL     1       8.285 -12.417   4.290  1.00  0.00     0.166 HD
ATOM     33  C   UNL     1      10.980 -10.602   1.523  1.00  0.00     0.002 A 
ENDBRANCH  23  24
ENDBRANCH  20  23
ENDBRANCH   8  20
TORSDOF 5
