REMARK SMILES Cc1cc(NC(=O)c2cn(C[C@@H]3CCC[N@H+]3C)c3ccccc23)c2ccccc2n1
REMARK SMILES IDX 8 1 9 2 10 3 18 4 23 5 22 6 21 7 20 8 19 9 6 10 5 11 7 13
REMARK SMILES IDX 4 14 1 15 2 16 30 17 3 18 29 19 24 20 28 21 25 22 27 23
REMARK SMILES IDX 26 24 11 25 12 26 13 27 16 28 14 29 15 30 17 31
REMARK H PARENT 5 12 16 32
REMARK Flexibility Score: inf
ROOT
ATOM      1  C   UNL     1      -0.445   5.081   0.297  1.00  0.00     0.065 A 
ATOM      2  C   UNL     1      -1.808   5.093   0.228  1.00  0.00     0.100 A 
ATOM      3  N   UNL     1      -2.283   3.828   0.332  1.00  0.00    -0.341 N 
ATOM      4  C   UNL     1      -1.243   2.933   0.474  1.00  0.00     0.049 A 
ATOM      5  C   UNL     1      -0.048   3.670   0.459  1.00  0.00     0.012 A 
ATOM      6  C   UNL     1       1.177   3.018   0.585  1.00  0.00     0.011 A 
ATOM      7  C   UNL     1       1.208   1.648   0.726  1.00  0.00     0.001 A 
ATOM      8  C   UNL     1       0.029   0.918   0.741  1.00  0.00     0.002 A 
ATOM      9  C   UNL     1      -1.189   1.550   0.611  1.00  0.00     0.027 A 
ENDROOT
BRANCH   1  10
ATOM     10  C   UNL     1       0.449   6.243   0.225  1.00  0.00     0.257 C 
ATOM     11  N   UNL     1      -0.065   7.480   0.075  1.00  0.00    -0.321 N 
ATOM     12  H   UNL     1      -1.079   7.604  -0.055  1.00  0.00     0.170 HD
ATOM     13  O   UNL     1       1.653   6.090   0.300  1.00  0.00    -0.269 OA
BRANCH  11  14
ATOM     14  C   UNL     1       0.774   8.588   0.094  1.00  0.00     0.052 A 
ATOM     15  C   UNL     1       4.285   9.544  -0.902  1.00  0.00     0.067 C 
ATOM     16  C   UNL     1       2.881   9.640  -0.364  1.00  0.00     0.040 A 
ATOM     17  N   UNL     1       2.461  10.784   0.124  1.00  0.00    -0.253 NA
ATOM     18  C   UNL     1       2.068   8.513  -0.391  1.00  0.00     0.050 A 
ATOM     19  C   UNL     1       1.225  10.927   0.615  1.00  0.00     0.073 A 
ATOM     20  C   UNL     1       0.334   9.828   0.617  1.00  0.00     0.024 A 
ATOM     21  C   UNL     1       0.791  12.159   1.134  1.00  0.00     0.029 A 
ATOM     22  C   UNL     1      -0.961   9.984   1.132  1.00  0.00     0.012 A 
ATOM     23  C   UNL     1      -0.473  12.277   1.627  1.00  0.00     0.002 A 
ATOM     24  C   UNL     1      -1.347  11.193   1.627  1.00  0.00     0.001 A 
ENDBRANCH  11  14
ENDBRANCH   1  10
BRANCH   3  25
ATOM     25  C   UNL     1      -3.701   3.463   0.299  1.00  0.00     0.187 C 
BRANCH  25  26
ATOM     26  C   UNL     1      -4.166   3.092   1.709  1.00  0.00     0.204 C 
ATOM     27  C   UNL     1      -5.632   2.611   1.683  1.00  0.00     0.073 C 
ATOM     28  N   UNL     1      -4.208   4.269   2.585  1.00  0.00    -0.333 N 
ATOM     29  C   UNL     1      -6.259   3.166   2.978  1.00  0.00     0.068 C 
ATOM     30  C   UNL     1      -5.119   3.937   3.678  1.00  0.00     0.262 C 
ATOM     31  C   UNL     1      -2.841   4.580   3.108  1.00  0.00     0.333 C 
ATOM     32  H   UNL     1      -4.532   5.103   2.075  1.00  0.00     0.348 HD
ENDBRANCH  25  26
ENDBRANCH   3  25
TORSDOF 4
