REMARK SMILES COC(=O)C1(c2ccccc2)CCN(C(=O)c2sc3nc(C)cc(C)c3c2-n2cccc2)CC1
REMARK SMILES IDX 15 1 16 2 14 3 13 4 12 5 5 6 34 7 33 8 17 9 25 10 24 11
REMARK SMILES IDX 26 12 23 13 19 14 27 15 21 16 20 17 18 18 22 19 28 20 32 21
REMARK SMILES IDX 29 22 31 23 30 24 6 25 11 26 7 27 10 28 8 29 9 30 3 31 4 32
REMARK SMILES IDX 2 33 1 34
REMARK H PARENT
REMARK Flexibility Score: inf
ROOT
ATOM      1  C   UNL     1       6.228   1.331  -0.052  1.00  0.00     0.266 C 
ATOM      2  O   UNL     1       5.041   1.084   0.065  1.00  0.00    -0.268 OA
ATOM      3  N   UNL     1       7.117   0.325  -0.168  1.00  0.00    -0.338 N 
ATOM      4  C   UNL     1       6.662  -1.067  -0.276  1.00  0.00     0.121 C 
ATOM      5  C   UNL     1       7.359  -1.903   0.796  1.00  0.00     0.045 C 
ATOM      6  C   UNL     1       8.874  -1.725   0.674  1.00  0.00     0.096 C 
ATOM      7  C   UNL     1       9.236  -0.255   0.894  1.00  0.00     0.045 C 
ATOM      8  C   UNL     1       8.560   0.600  -0.182  1.00  0.00     0.121 C 
ENDROOT
BRANCH   1   9
ATOM      9  C   UNL     1       6.688   2.721  -0.065  1.00  0.00     0.119 A 
ATOM     10  C   UNL     1       5.405   6.392   2.123  1.00  0.00     0.045 C 
ATOM     11  C   UNL     1       6.518   6.315   1.110  1.00  0.00    -0.037 A 
ATOM     12  C   UNL     1       6.833   5.085   0.480  1.00  0.00     0.039 A 
ATOM     13  C   UNL     1       7.245   7.436   0.784  1.00  0.00     0.027 A 
ATOM     14  C   UNL     1       7.894   5.115  -0.454  1.00  0.00     0.126 A 
ATOM     15  C   UNL     1       6.209   3.784   0.663  1.00  0.00     0.079 A 
ATOM     16  C   UNL     1       8.269   7.361  -0.148  1.00  0.00     0.039 A 
ATOM     17  N   UNL     1       8.559   6.215  -0.732  1.00  0.00    -0.242 NA
ATOM     18  S   UNL     1       8.003   3.439  -1.029  1.00  0.00    -0.108 S 
ATOM     19  C   UNL     1       9.057   8.599  -0.494  1.00  0.00     0.067 C 
BRANCH  15  20
ATOM     20  N   UNL     1       5.151   3.619   1.558  1.00  0.00    -0.322 N 
ATOM     21  C   UNL     1       5.178   2.860   2.693  1.00  0.00     0.091 A 
ATOM     22  C   UNL     1       3.916   4.195   1.446  1.00  0.00     0.091 A 
ATOM     23  C   UNL     1       3.972   2.951   3.290  1.00  0.00     0.020 A 
ATOM     24  C   UNL     1       3.170   3.796   2.496  1.00  0.00     0.020 A 
ENDBRANCH  15  20
ENDBRANCH   1   9
BRANCH   6  25
ATOM     25  C   UNL     1       9.564  -2.573   1.711  1.00  0.00    -0.031 A 
ATOM     26  C   UNL     1       9.387  -3.944   1.713  1.00  0.00     0.005 A 
ATOM     27  C   UNL     1      10.379  -1.980   2.657  1.00  0.00     0.005 A 
ATOM     28  C   UNL     1      10.020  -4.722   2.664  1.00  0.00     0.000 A 
ATOM     29  C   UNL     1      11.009  -2.757   3.612  1.00  0.00     0.000 A 
ATOM     30  C   UNL     1      10.831  -4.128   3.614  1.00  0.00     0.000 A 
ENDBRANCH   6  25
BRANCH   6  31
ATOM     31  C   UNL     1       9.320  -2.151  -0.701  1.00  0.00     0.316 C 
ATOM     32  O   UNL     1       9.871  -1.360  -1.429  1.00  0.00    -0.251 OA
BRANCH  31  33
ATOM     33  O   UNL     1       9.106  -3.410  -1.116  1.00  0.00    -0.468 OA
ATOM     34  C   UNL     1       9.563  -3.750  -2.452  1.00  0.00     0.282 C 
ENDBRANCH  31  33
ENDBRANCH   6  31
TORSDOF 5
