REMARK SMILES C[C@@H](NC(=O)COC(=O)c1ccccc1NC(=O)Cc1ccccc1)[C@H](c1ccccc1)[NH+]1CCCC1
REMARK SMILES IDX 7 1 6 2 4 3 3 4 5 6 2 7 1 8 26 9 27 10 32 11 28 12 31 13
REMARK SMILES IDX 29 14 30 15 33 16 37 17 34 18 36 20 35 21 8 22 9 23 10 24
REMARK SMILES IDX 15 25 11 26 14 27 12 28 13 29 16 30 17 31 18 33 19 34 20 35
REMARK SMILES IDX 25 36 21 37 24 38 22 39 23 40
REMARK H PARENT 3 5 33 19 16 32
REMARK Flexibility Score: inf
ROOT
ATOM      1  O   UNL     1       3.391   3.289  -0.764  1.00  0.00    -0.452 OA
ENDROOT
BRANCH   1   2
ATOM      2  C   UNL     1       4.401   2.281  -0.493  1.00  0.00     0.333 C 
BRANCH   2   3
ATOM      3  C   UNL     1       5.765   2.921  -0.508  1.00  0.00     0.258 C 
ATOM      4  N   UNL     1       6.863   2.173  -0.279  1.00  0.00    -0.344 N 
ATOM      5  H   UNL     1       6.769   1.164  -0.094  1.00  0.00     0.164 HD
ATOM      6  O   UNL     1       5.876   4.109  -0.726  1.00  0.00    -0.271 OA
BRANCH   4   7
ATOM      7  C   UNL     1       8.189   2.795  -0.294  1.00  0.00     0.142 C 
ATOM      8  C   UNL     1       8.709   2.854  -1.732  1.00  0.00     0.038 C 
BRANCH   7   9
ATOM      9  C   UNL     1       9.150   1.967   0.561  1.00  0.00     0.237 C 
BRANCH   9  10
ATOM     10  C   UNL     1       8.564   1.779   1.937  1.00  0.00     0.011 A 
ATOM     11  C   UNL     1       8.078   0.542   2.318  1.00  0.00     0.010 A 
ATOM     12  C   UNL     1       8.517   2.842   2.819  1.00  0.00     0.010 A 
ATOM     13  C   UNL     1       7.539   0.370   3.579  1.00  0.00     0.001 A 
ATOM     14  C   UNL     1       7.975   2.671   4.079  1.00  0.00     0.001 A 
ATOM     15  C   UNL     1       7.488   1.434   4.460  1.00  0.00     0.000 A 
ENDBRANCH   9  10
BRANCH   9  16
ATOM     16  N   UNL     1      10.437   2.667   0.669  1.00  0.00    -0.327 N 
ATOM     17  C   UNL     1      11.200   2.572  -0.594  1.00  0.00     0.263 C 
ATOM     18  C   UNL     1      11.296   2.046   1.709  1.00  0.00     0.263 C 
ATOM     19  H   UNL     1      10.215   3.646   0.901  1.00  0.00     0.348 HD
ATOM     20  C   UNL     1      12.691   2.499  -0.216  1.00  0.00     0.067 C 
ATOM     21  C   UNL     1      12.719   2.528   1.329  1.00  0.00     0.067 C 
ENDBRANCH   9  16
ENDBRANCH   7   9
ENDBRANCH   4   7
ENDBRANCH   2   3
ENDBRANCH   1   2
BRANCH   1  22
ATOM     22  C   UNL     1       2.108   2.878  -0.786  1.00  0.00     0.340 C 
ATOM     23  O   UNL     1       1.840   1.710  -0.584  1.00  0.00    -0.246 OA
BRANCH  22  24
ATOM     24  C   UNL     1       1.029   3.845  -1.055  1.00  0.00     0.083 A 
ATOM     25  C   UNL     1      -0.314   3.444  -0.982  1.00  0.00     0.055 A 
ATOM     26  C   UNL     1       1.337   5.168  -1.385  1.00  0.00     0.018 A 
ATOM     27  C   UNL     1      -1.321   4.363  -1.244  1.00  0.00     0.027 A 
ATOM     28  C   UNL     1       0.324   6.067  -1.636  1.00  0.00     0.001 A 
ATOM     29  C   UNL     1      -1.001   5.667  -1.563  1.00  0.00     0.002 A 
BRANCH  25  30
ATOM     30  N   UNL     1      -0.634   2.129  -0.654  1.00  0.00    -0.325 N 
ATOM     31  C   UNL     1      -1.786   1.586  -1.096  1.00  0.00     0.228 C 
ATOM     32  H   UNL     1       0.009   1.572  -0.074  1.00  0.00     0.169 HD
ATOM     33  O   UNL     1      -2.493   2.205  -1.862  1.00  0.00    -0.274 OA
BRANCH  31  34
ATOM     34  C   UNL     1      -2.194   0.210  -0.638  1.00  0.00     0.135 C 
BRANCH  34  35
ATOM     35  C   UNL     1      -3.510  -0.161  -1.273  1.00  0.00    -0.039 A 
ATOM     36  C   UNL     1      -3.530  -0.813  -2.491  1.00  0.00     0.004 A 
ATOM     37  C   UNL     1      -4.696   0.145  -0.633  1.00  0.00     0.004 A 
ATOM     38  C   UNL     1      -4.737  -1.154  -3.073  1.00  0.00     0.000 A 
ATOM     39  C   UNL     1      -5.903  -0.190  -1.218  1.00  0.00     0.000 A 
ATOM     40  C   UNL     1      -5.923  -0.842  -2.437  1.00  0.00     0.000 A 
ENDBRANCH  34  35
ENDBRANCH  31  34
ENDBRANCH  25  30
ENDBRANCH  22  24
ENDBRANCH   1  22
TORSDOF 11
