REMARK SMILES CCCCNC(=O)c1cccc2c1N[C@@H](c1ccc([N+](=O)[O-])cc1)[C@@H]1CC=C[C@H]21
REMARK SMILES IDX 5 1 6 2 7 3 4 5 3 6 2 7 1 8 8 9 13 10 9 11 12 12 14 13 10 14
REMARK SMILES IDX 11 15 29 16 15 17 25 19 28 20 26 21 27 22 16 23 24 24 17 25
REMARK SMILES IDX 23 26 18 27 19 28 20 29 22 30 21 31
REMARK H PARENT 5 4 14 18
REMARK Flexibility Score: inf
ROOT
ATOM      1  N   UNL     1      -0.004   1.118   2.454  1.00  0.00    -0.352 N 
ATOM      2  C   UNL     1      -0.473   1.407   3.684  1.00  0.00     0.253 C 
ATOM      3  O   UNL     1      -1.485   2.070   3.808  1.00  0.00    -0.269 OA
ATOM      4  H   UNL     1       0.853   0.556   2.348  1.00  0.00     0.163 HD
ENDROOT
BRANCH   1   5
ATOM      5  C   UNL     1      -0.713   1.603   1.267  1.00  0.00     0.116 C 
BRANCH   5   6
ATOM      6  C   UNL     1       0.024   1.140   0.008  1.00  0.00     0.021 C 
BRANCH   6   7
ATOM      7  C   UNL     1      -0.717   1.647  -1.231  1.00  0.00    -0.002 C 
ATOM      8  C   UNL     1       0.020   1.183  -2.490  1.00  0.00     0.004 C 
ENDBRANCH   6   7
ENDBRANCH   5   6
ENDBRANCH   1   5
BRANCH   2   9
ATOM      9  C   UNL     1       0.240   0.918   4.878  1.00  0.00     0.063 A 
ATOM     10  C   UNL     1      -0.171   1.331   6.161  1.00  0.00     0.051 A 
ATOM     11  C   UNL     1       1.317   0.043   4.738  1.00  0.00     0.016 A 
ATOM     12  C   UNL     1       0.505   0.869   7.278  1.00  0.00    -0.017 A 
ATOM     13  N   UNL     1      -1.252   2.192   6.253  1.00  0.00    -0.377 N 
ATOM     14  C   UNL     1       1.980  -0.405   5.859  1.00  0.00     0.001 A 
ATOM     15  C   UNL     1       1.576   0.002   7.118  1.00  0.00     0.006 A 
ATOM     16  C   UNL     1       0.130   1.273   8.674  1.00  0.00     0.049 C 
ATOM     17  C   UNL     1      -1.212   3.006   7.468  1.00  0.00     0.114 C 
ATOM     18  H   UNL     1      -2.000   2.253   5.546  1.00  0.00     0.161 HD
ATOM     19  C   UNL     1      -1.181   2.088   8.693  1.00  0.00     0.031 C 
ATOM     20  C   UNL     1       1.160   2.217   9.249  1.00  0.00    -0.023 C 
ATOM     21  C   UNL     1      -0.925   2.974   9.945  1.00  0.00     0.034 C 
ATOM     22  C   UNL     1       0.579   3.159   9.948  1.00  0.00    -0.030 C 
BRANCH  17  23
ATOM     23  C   UNL     1      -2.437   3.882   7.528  1.00  0.00    -0.025 A 
ATOM     24  C   UNL     1      -2.331   5.188   7.970  1.00  0.00     0.013 A 
ATOM     25  C   UNL     1      -3.664   3.382   7.135  1.00  0.00     0.013 A 
ATOM     26  C   UNL     1      -3.455   5.991   8.024  1.00  0.00     0.086 A 
ATOM     27  C   UNL     1      -4.788   4.185   7.193  1.00  0.00     0.086 A 
ATOM     28  C   UNL     1      -4.683   5.490   7.636  1.00  0.00     0.269 A 
BRANCH  28  29
ATOM     29  N   UNL     1      -5.886   6.350   7.695  1.00  0.00     0.062 N 
ATOM     30  O   UNL     1      -5.793   7.500   8.086  1.00  0.00    -0.258 OA
ATOM     31  O   UNL     1      -6.968   5.909   7.354  1.00  0.00    -0.258 OA
ENDBRANCH  28  29
ENDBRANCH  17  23
ENDBRANCH   2   9
TORSDOF 6
