REMARK SMILES O=c1c2c3c(sc2ncn1CCc1c[nH]c2ccccc12)C[C@H]([NH2+]Cc1cccc(F)c1F)CC3
REMARK SMILES IDX 10 1 9 2 8 3 7 4 3 5 2 6 1 7 4 8 5 9 6 10 22 11 23 12 34 13
REMARK SMILES IDX 35 14 11 15 12 16 13 17 19 18 20 19 18 20 21 21 17 22 16 23
REMARK SMILES IDX 15 24 14 25 24 27 25 30 26 31 32 32 27 33 30 34 33 35 28 36
REMARK SMILES IDX 29 37 31 38
REMARK H PARENT 15 26 24 28 24 29
REMARK Flexibility Score: inf
ROOT
ATOM      1  N   UNL     1       1.434   5.617  -1.116  1.00  0.00    -0.298 N 
ATOM      2  C   UNL     1       2.769   5.837  -1.045  1.00  0.00     0.204 A 
ATOM      3  N   UNL     1       3.628   4.915  -0.667  1.00  0.00    -0.227 NA
ATOM      4  C   UNL     1       3.140   3.721  -0.346  1.00  0.00     0.131 A 
ATOM      5  C   UNL     1       1.767   3.394  -0.387  1.00  0.00     0.080 A 
ATOM      6  C   UNL     1       0.863   4.429  -0.805  1.00  0.00     0.262 A 
ATOM      7  O   UNL     1      -0.340   4.250  -0.874  1.00  0.00    -0.269 OA
ATOM      8  C   UNL     1       1.418   2.039  -0.001  1.00  0.00    -0.018 A 
ATOM      9  C   UNL     1       2.442   1.228   0.358  1.00  0.00     0.017 A 
ATOM     10  S   UNL     1       3.902   2.225   0.199  1.00  0.00    -0.120 S 
ATOM     11  C   UNL     1       2.356  -0.202   0.795  1.00  0.00     0.112 C 
ATOM     12  C   UNL     1       0.893  -0.519   1.137  1.00  0.00     0.188 C 
ATOM     13  C   UNL     1       0.002  -0.004   0.002  1.00  0.00     0.070 C 
ATOM     14  C   UNL     1      -0.019   1.524   0.010  1.00  0.00     0.044 C 
ENDROOT
BRANCH   1  15
ATOM     15  C   UNL     1       0.568   6.715  -1.551  1.00  0.00     0.132 C 
BRANCH  15  16
ATOM     16  C   UNL     1       0.410   6.669  -3.072  1.00  0.00     0.060 C 
BRANCH  16  17
ATOM     17  C   UNL     1      -0.481   7.799  -3.519  1.00  0.00    -0.021 A 
ATOM     18  C   UNL     1       1.206  11.180  -4.067  1.00  0.00     0.001 A 
ATOM     19  C   UNL     1       1.152   9.854  -3.743  1.00  0.00     0.010 A 
ATOM     20  C   UNL     1       0.058  11.861  -4.447  1.00  0.00     0.002 A 
ATOM     21  C   UNL     1      -0.069   9.178  -3.793  1.00  0.00     0.003 A 
ATOM     22  C   UNL     1      -1.155  11.211  -4.511  1.00  0.00     0.026 A 
ATOM     23  C   UNL     1      -1.235   9.862  -4.180  1.00  0.00     0.046 A 
ATOM     24  N   UNL     1      -2.272   8.957  -4.133  1.00  0.00    -0.361 N 
ATOM     25  C   UNL     1      -1.804   7.734  -3.737  1.00  0.00     0.087 A 
ATOM     26  H   UNL     1      -3.253   9.170  -4.361  1.00  0.00     0.166 HD
ENDBRANCH  16  17
ENDBRANCH  15  16
ENDBRANCH   1  15
BRANCH  12  27
ATOM     27  N   UNL     1       0.720  -1.978   1.269  1.00  0.00    -0.340 N 
ATOM     28  H   UNL     1      -0.258  -2.226   1.059  1.00  0.00     0.346 HD
ATOM     29  H   UNL     1       1.340  -2.458   0.602  1.00  0.00     0.346 HD
BRANCH  27  30
ATOM     30  C   UNL     1       1.049  -2.410   2.640  1.00  0.00     0.300 C 
BRANCH  30  31
ATOM     31  C   UNL     1       0.864  -3.902   2.745  1.00  0.00     0.045 A 
ATOM     32  C   UNL     1       1.844  -4.756   2.272  1.00  0.00     0.167 A 
ATOM     33  C   UNL     1      -0.284  -4.417   3.319  1.00  0.00     0.013 A 
ATOM     34  C   UNL     1       1.672  -6.129   2.370  1.00  0.00     0.159 A 
ATOM     35  F   UNL     1       2.968  -4.254   1.715  1.00  0.00    -0.203 F 
ATOM     36  C   UNL     1      -0.458  -5.785   3.412  1.00  0.00     0.004 A 
ATOM     37  C   UNL     1       0.520  -6.641   2.941  1.00  0.00     0.042 A 
ATOM     38  F   UNL     1       2.628  -6.965   1.909  1.00  0.00    -0.204 F 
ENDBRANCH  30  31
ENDBRANCH  27  30
ENDBRANCH  12  27
TORSDOF 6
