REMARK SMILES CCc1nc2ccccc2n1CC(=O)NN/C=C1/C(=O)N(c2cccc(Cl)c2)C(=O)c2ccccc21
REMARK SMILES IDX 13 1 14 2 15 3 12 5 11 6 3 7 4 8 10 9 5 10 9 11 6 12 8 13
REMARK SMILES IDX 7 14 2 15 1 16 16 17 17 19 18 20 19 21 36 22 21 23 20 24
REMARK SMILES IDX 31 25 35 26 29 27 32 28 34 29 30 30 33 31 22 32 28 33 23 34
REMARK SMILES IDX 26 35 24 36 25 37 27 38
REMARK H PARENT 15 4 16 18
REMARK Flexibility Score: inf
ROOT
ATOM      1  C   UNL     1       6.668  -1.546  -0.584  1.00  0.00     0.258 C 
ATOM      2  O   UNL     1       5.727  -2.260  -0.312  1.00  0.00    -0.271 OA
ATOM      3  N   UNL     1       6.494  -0.214  -0.694  1.00  0.00    -0.269 N 
ATOM      4  H   UNL     1       7.294   0.393  -0.925  1.00  0.00     0.191 HD
ENDROOT
BRANCH   1   5
ATOM      5  C   UNL     1       8.033  -2.148  -0.799  1.00  0.00     0.225 C 
BRANCH   5   6
ATOM      6  N   UNL     1       7.960  -3.600  -0.625  1.00  0.00    -0.318 N 
ATOM      7  C   UNL     1       7.700  -4.517  -1.596  1.00  0.00     0.110 A 
ATOM      8  N   UNL     1       7.710  -5.716  -1.093  1.00  0.00    -0.233 NA
ATOM      9  C   UNL     1       8.147  -4.294   0.554  1.00  0.00     0.069 A 
ATOM     10  C   UNL     1       7.977  -5.652   0.237  1.00  0.00     0.089 A 
ATOM     11  C   UNL     1       8.427  -3.920   1.862  1.00  0.00     0.028 A 
ATOM     12  C   UNL     1       8.104  -6.614   1.242  1.00  0.00     0.030 A 
ATOM     13  C   UNL     1       8.548  -4.886   2.837  1.00  0.00     0.002 A 
ATOM     14  C   UNL     1       8.386  -6.228   2.522  1.00  0.00     0.002 A 
BRANCH   7  15
ATOM     15  C   UNL     1       7.439  -4.190  -3.044  1.00  0.00     0.072 C 
ATOM     16  C   UNL     1       8.762  -4.184  -3.812  1.00  0.00     0.012 C 
ENDBRANCH   7  15
ENDBRANCH   5   6
ENDBRANCH   1   5
BRANCH   3  17
ATOM     17  N   UNL     1       5.225   0.345  -0.494  1.00  0.00    -0.305 N 
ATOM     18  H   UNL     1       4.425  -0.262  -0.264  1.00  0.00     0.187 HD
BRANCH  17  19
ATOM     19  C   UNL     1       5.049   1.688  -0.605  1.00  0.00     0.115 C 
ATOM     20  C   UNL     1       3.781   2.223  -0.553  1.00  0.00     0.066 C 
ATOM     21  C   UNL     1       3.558   3.593  -0.077  1.00  0.00     0.267 C 
ATOM     22  C   UNL     1       2.604   1.435  -0.976  1.00  0.00     0.002 A 
ATOM     23  N   UNL     1       2.319   4.108  -0.029  1.00  0.00    -0.242 N 
ATOM     24  O   UNL     1       4.506   4.269   0.278  1.00  0.00    -0.268 OA
ATOM     25  C   UNL     1       1.334   2.041  -0.898  1.00  0.00     0.048 A 
ATOM     26  C   UNL     1       2.726   0.130  -1.439  1.00  0.00     0.010 A 
ATOM     27  C   UNL     1       1.228   3.420  -0.405  1.00  0.00     0.265 C 
ATOM     28  C   UNL     1       0.204   1.321  -1.290  1.00  0.00     0.014 A 
ATOM     29  C   UNL     1       1.596  -0.565  -1.821  1.00  0.00     0.001 A 
ATOM     30  O   UNL     1       0.135   3.949  -0.335  1.00  0.00    -0.268 OA
ATOM     31  C   UNL     1       0.345   0.029  -1.747  1.00  0.00     0.001 A 
BRANCH  23  32
ATOM     32  C   UNL     1       2.157   5.420   0.434  1.00  0.00     0.054 A 
ATOM     33  C   UNL     1       2.369   5.716   1.774  1.00  0.00     0.047 A 
ATOM     34  C   UNL     1       1.778   6.426  -0.445  1.00  0.00     0.027 A 
ATOM     35  C   UNL     1       2.212   7.013   2.226  1.00  0.00     0.043 A 
ATOM     36  C   UNL     1       1.618   7.719   0.014  1.00  0.00     0.004 A 
ATOM     37  C   UNL     1       1.835   8.013   1.347  1.00  0.00     0.020 A 
ATOM     38  Cl  UNL     1       2.482   7.386   3.900  1.00  0.00    -0.084 Cl
ENDBRANCH  23  32
ENDBRANCH  17  19
ENDBRANCH   3  17
TORSDOF 6
