REMARK SMILES Cc1ccc(S(=O)(=O)N(CC(=O)NCCCN2CCc3ccccc32)c2ccc(C)c(C)c2)cc1
REMARK SMILES IDX 11 1 12 2 13 3 10 5 9 6 6 7 7 8 8 9 5 10 1 11 2 12 35 13
REMARK SMILES IDX 3 14 34 15 4 16 26 17 33 18 27 19 31 20 28 21 29 22 32 23
REMARK SMILES IDX 30 24 14 25 15 26 16 27 17 28 25 29 18 30 20 31 24 32 19 33
REMARK SMILES IDX 21 34 23 35 22 36
REMARK H PARENT 13 4
REMARK Flexibility Score: inf
ROOT
ATOM      1  C   UNL     1      -0.073   4.431   6.567  1.00  0.00     0.240 C 
ATOM      2  O   UNL     1       1.067   4.018   6.583  1.00  0.00    -0.273 OA
ATOM      3  N   UNL     1      -0.899   4.087   5.559  1.00  0.00    -0.354 N 
ATOM      4  H   UNL     1      -1.868   4.437   5.545  1.00  0.00     0.163 HD
ENDROOT
BRANCH   1   5
ATOM      5  C   UNL     1      -0.567   5.327   7.673  1.00  0.00     0.235 C 
BRANCH   5   6
ATOM      6  N   UNL     1       0.512   5.549   8.639  1.00  0.00    -0.257 N 
BRANCH   6   7
ATOM      7  S   UNL     1       1.471   6.894   8.514  1.00  0.00     0.264 S 
ATOM      8  O   UNL     1       2.689   6.587   9.178  1.00  0.00    -0.201 OA
ATOM      9  O   UNL     1       1.427   7.299   7.153  1.00  0.00    -0.201 OA
BRANCH   7  10
ATOM     10  C   UNL     1       0.698   8.173   9.446  1.00  0.00     0.088 A 
ATOM     11  C   UNL     1      -1.176  11.277  11.706  1.00  0.00     0.044 C 
ATOM     12  C   UNL     1      -0.515  10.182  10.909  1.00  0.00    -0.051 A 
ATOM     13  C   UNL     1      -0.913   9.937   9.608  1.00  0.00     0.005 A 
ATOM     14  C   UNL     1       0.491   9.423  11.478  1.00  0.00     0.005 A 
ATOM     15  C   UNL     1      -0.304   8.935   8.875  1.00  0.00     0.022 A 
ATOM     16  C   UNL     1       1.097   8.419  10.747  1.00  0.00     0.022 A 
ENDBRANCH   7  10
ENDBRANCH   6   7
BRANCH   6  17
ATOM     17  C   UNL     1       0.732   4.627   9.665  1.00  0.00     0.053 A 
ATOM     18  C   UNL     1       0.357   3.300   9.501  1.00  0.00     0.030 A 
ATOM     19  C   UNL     1       1.332   5.035  10.850  1.00  0.00     0.027 A 
ATOM     20  C   UNL     1       0.577   2.391  10.517  1.00  0.00    -0.046 A 
ATOM     21  C   UNL     1       1.543   4.122  11.865  1.00  0.00     0.006 A 
ATOM     22  C   UNL     1       1.168   2.801  11.698  1.00  0.00    -0.048 A 
ATOM     23  C   UNL     1       0.170   0.951  10.340  1.00  0.00     0.044 C 
ATOM     24  C   UNL     1       1.406   1.807  12.805  1.00  0.00     0.044 C 
ENDBRANCH   6  17
ENDBRANCH   5   6
ENDBRANCH   1   5
BRANCH   3  25
ATOM     25  C   UNL     1      -0.420   3.216   4.483  1.00  0.00     0.117 C 
BRANCH  25  26
ATOM     26  C   UNL     1      -1.546   2.984   3.474  1.00  0.00     0.043 C 
BRANCH  26  27
ATOM     27  C   UNL     1      -1.046   2.074   2.351  1.00  0.00     0.118 C 
BRANCH  27  28
ATOM     28  N   UNL     1      -2.091   1.938   1.328  1.00  0.00    -0.371 N 
ATOM     29  C   UNL     1      -3.309   1.537   1.897  1.00  0.00     0.040 A 
ATOM     30  C   UNL     1      -2.321   3.222   0.631  1.00  0.00     0.121 C 
ATOM     31  C   UNL     1      -4.378   2.206   1.312  1.00  0.00    -0.023 A 
ATOM     32  C   UNL     1      -3.561   0.610   2.906  1.00  0.00     0.026 A 
ATOM     33  C   UNL     1      -3.821   3.150   0.265  1.00  0.00     0.059 C 
ATOM     34  C   UNL     1      -5.670   1.950   1.718  1.00  0.00     0.006 A 
ATOM     35  C   UNL     1      -4.856   0.359   3.311  1.00  0.00     0.002 A 
ATOM     36  C   UNL     1      -5.913   1.026   2.718  1.00  0.00     0.000 A 
ENDBRANCH  27  28
ENDBRANCH  26  27
ENDBRANCH  25  26
ENDBRANCH   3  25
TORSDOF 9
