REMARK SMILES CSCC[C@@H](NC(=O)c1cccc(C)c1)C(=O)NNC(=O)c1ccc(-c2ccc(F)cc2)s1
REMARK SMILES IDX 16 1 17 2 18 3 5 5 6 6 7 7 8 8 9 10 14 11 13 12 15 13 12 14
REMARK SMILES IDX 11 15 10 16 4 17 3 18 2 19 1 20 19 21 20 22 21 24 22 25
REMARK SMILES IDX 33 26 23 27 25 28 24 29 26 30 32 31 27 32 31 33 28 34 29 35
REMARK SMILES IDX 30 36
REMARK H PARENT 18 4 6 9 19 23
REMARK Flexibility Score: inf
ROOT
ATOM      1  C   UNL     1       2.354   7.995   0.619  1.00  0.00     0.260 C 
ATOM      2  O   UNL     1       3.204   7.216   0.996  1.00  0.00    -0.271 OA
ATOM      3  N   UNL     1       2.561   9.322   0.727  1.00  0.00    -0.266 N 
ATOM      4  H   UNL     1       1.839   9.983   0.407  1.00  0.00     0.191 HD
ENDROOT
BRANCH   1   5
ATOM      5  C   UNL     1       1.068   7.478   0.029  1.00  0.00     0.174 C 
BRANCH   5   6
ATOM      6  N   UNL     1       1.088   6.013   0.022  1.00  0.00    -0.340 N 
ATOM      7  C   UNL     1      -0.070   5.323   0.030  1.00  0.00     0.251 C 
ATOM      8  O   UNL     1      -1.131   5.916   0.043  1.00  0.00    -0.269 OA
ATOM      9  H   UNL     1       1.987   5.510   0.010  1.00  0.00     0.164 HD
BRANCH   7  10
ATOM     10  C   UNL     1      -0.050   3.845   0.023  1.00  0.00     0.040 A 
ATOM     11  C   UNL     1      -2.514   0.972   0.019  1.00  0.00     0.044 C 
ATOM     12  C   UNL     1      -1.222   1.748   0.017  1.00  0.00    -0.050 A 
ATOM     13  C   UNL     1      -1.248   3.127   0.031  1.00  0.00     0.017 A 
ATOM     14  C   UNL     1      -0.013   1.076   0.008  1.00  0.00     0.003 A 
ATOM     15  C   UNL     1       1.178   1.781   0.000  1.00  0.00     0.001 A 
ATOM     16  C   UNL     1       1.166   3.160   0.007  1.00  0.00     0.014 A 
ENDBRANCH   7  10
ENDBRANCH   5   6
BRANCH   5  17
ATOM     17  C   UNL     1       0.921   7.993  -1.405  1.00  0.00     0.046 C 
BRANCH  17  18
ATOM     18  C   UNL     1      -0.441   7.572  -1.960  1.00  0.00     0.072 C 
BRANCH  18  19
ATOM     19  S   UNL     1      -0.615   8.183  -3.660  1.00  0.00    -0.165 SA
ATOM     20  C   UNL     1      -2.259   7.608  -4.166  1.00  0.00     0.085 C 
ENDBRANCH  18  19
ENDBRANCH  17  18
ENDBRANCH   5  17
ENDBRANCH   1   5
BRANCH   3  21
ATOM     21  N   UNL     1       3.757   9.803   1.276  1.00  0.00    -0.263 N 
ATOM     22  C   UNL     1       3.963  11.130   1.384  1.00  0.00     0.279 C 
ATOM     23  H   UNL     1       4.479   9.142   1.596  1.00  0.00     0.191 HD
ATOM     24  O   UNL     1       3.110  11.912   1.005  1.00  0.00    -0.266 OA
BRANCH  22  25
ATOM     25  C   UNL     1       5.213  11.633   1.958  1.00  0.00     0.094 A 
ATOM     26  S   UNL     1       6.611  10.713   2.582  1.00  0.00    -0.130 S 
ATOM     27  C   UNL     1       5.619  12.945   2.150  1.00  0.00     0.026 A 
ATOM     28  C   UNL     1       7.633  12.096   3.062  1.00  0.00     0.035 A 
ATOM     29  C   UNL     1       6.841  13.179   2.715  1.00  0.00     0.021 A 
BRANCH  28  30
ATOM     30  C   UNL     1       8.978  12.088   3.672  1.00  0.00    -0.008 A 
ATOM     31  C   UNL     1       9.615  10.876   3.947  1.00  0.00     0.012 A 
ATOM     32  C   UNL     1       9.619  13.291   3.971  1.00  0.00     0.012 A 
ATOM     33  C   UNL     1      10.871  10.874   4.517  1.00  0.00     0.040 A 
ATOM     34  C   UNL     1      10.873  13.277   4.545  1.00  0.00     0.040 A 
ATOM     35  C   UNL     1      11.501  12.072   4.817  1.00  0.00     0.123 A 
ATOM     36  F   UNL     1      12.731  12.064   5.375  1.00  0.00    -0.207 F 
ENDBRANCH  28  30
ENDBRANCH  22  25
ENDBRANCH   3  21
TORSDOF 9
