REMARK SMILES O=C(CCc1ccccc1)Nc1cc(O)nc2nc(CCc3ccccc3)nn12
REMARK SMILES IDX 19 1 18 2 17 3 16 4 14 5 13 6 12 7 29 8 28 9 20 10 21 11
REMARK SMILES IDX 22 12 25 13 26 14 24 15 27 16 23 17 11 18 2 19 1 21 3 22
REMARK SMILES IDX 4 23 5 24 10 25 6 26 9 27 7 28 8 29 15 30
REMARK H PARENT 11 20 15 31
REMARK Flexibility Score: inf
ROOT
ATOM      1  C   UNL     1       5.475  -1.691  -1.915  1.00  0.00     0.153 A 
ATOM      2  N   UNL     1       5.610  -3.013  -1.825  1.00  0.00    -0.194 NA
ATOM      3  C   UNL     1       6.882  -3.322  -1.680  1.00  0.00     0.257 A 
ATOM      4  N   UNL     1       7.536  -4.527  -1.546  1.00  0.00    -0.175 NA
ATOM      5  C   UNL     1       8.876  -4.559  -1.411  1.00  0.00     0.217 A 
ATOM      6  C   UNL     1       9.610  -3.359  -1.409  1.00  0.00     0.115 A 
ATOM      7  C   UNL     1       8.956  -2.172  -1.542  1.00  0.00     0.143 A 
ATOM      8  N   UNL     1       7.588  -2.159  -1.678  1.00  0.00    -0.180 N 
ATOM      9  N   UNL     1       6.652  -1.127  -1.837  1.00  0.00    -0.148 NA
ENDROOT
BRANCH   1  10
ATOM     10  C   UNL     1       4.169  -0.959  -2.087  1.00  0.00     0.084 C 
BRANCH  10  11
ATOM     11  C   UNL     1       3.585  -0.627  -0.713  1.00  0.00     0.043 C 
BRANCH  11  12
ATOM     12  C   UNL     1       2.279   0.105  -0.885  1.00  0.00    -0.048 A 
ATOM     13  C   UNL     1      -0.117   1.448  -1.201  1.00  0.00     0.000 A 
ATOM     14  C   UNL     1      -0.104   0.068  -1.118  1.00  0.00     0.000 A 
ATOM     15  C   UNL     1       1.068   2.156  -1.125  1.00  0.00     0.000 A 
ATOM     16  C   UNL     1       1.094  -0.603  -0.960  1.00  0.00     0.004 A 
ATOM     17  C   UNL     1       2.265   1.485  -0.967  1.00  0.00     0.004 A 
ENDBRANCH  11  12
ENDBRANCH  10  11
ENDBRANCH   1  10
BRANCH   7  18
ATOM     18  N   UNL     1       9.663  -0.988  -1.541  1.00  0.00    -0.310 N 
ATOM     19  C   UNL     1       9.372  -0.030  -0.638  1.00  0.00     0.225 C 
ATOM     20  H   UNL     1      10.413  -0.835  -2.230  1.00  0.00     0.171 HD
ATOM     21  O   UNL     1       8.554  -0.244   0.230  1.00  0.00    -0.275 OA
BRANCH  19  22
ATOM     22  C   UNL     1      10.064   1.307  -0.708  1.00  0.00     0.105 C 
BRANCH  22  23
ATOM     23  C   UNL     1       9.557   2.204   0.423  1.00  0.00     0.045 C 
BRANCH  23  24
ATOM     24  C   UNL     1      10.249   3.540   0.353  1.00  0.00    -0.048 A 
ATOM     25  C   UNL     1       9.699   4.565  -0.395  1.00  0.00     0.004 A 
ATOM     26  C   UNL     1      11.430   3.744   1.041  1.00  0.00     0.004 A 
ATOM     27  C   UNL     1      10.334   5.791  -0.458  1.00  0.00     0.000 A 
ATOM     28  C   UNL     1      12.068   4.968   0.974  1.00  0.00     0.000 A 
ATOM     29  C   UNL     1      11.518   5.993   0.225  1.00  0.00     0.000 A 
ENDBRANCH  23  24
ENDBRANCH  22  23
ENDBRANCH  19  22
ENDBRANCH   7  18
BRANCH   5  30
ATOM     30  O   UNL     1       9.453  -5.627  -1.293  1.00  0.00    -0.493 OA
ATOM     31  H   UNL     1       9.186  -6.150  -2.090  1.00  0.00     0.295 HD
ENDBRANCH   5  30
TORSDOF 8
