REMARK SMILES NC(=[NH2+])c1cccc(-n2nc(C(F)(F)F)cc2C(=O)Nc2ccc(N3C(=O)N=C4C=CC=C[C@H]43)cc2)c1
REMARK SMILES IDX 9 1 17 2 16 3 11 4 10 5 8 6 6 7 7 8 5 9 4 10 37 11 2 12 1 13
REMARK SMILES IDX 3 14 18 19 19 20 20 21 21 23 36 24 22 25 35 26 23 27 24 28
REMARK SMILES IDX 25 29 26 30 34 31 28 32 27 33 29 34 33 35 30 36 32 37 31 38
REMARK SMILES IDX 12 39 13 40 14 41 15 42
REMARK H PARENT 1 15 1 16 3 17 3 18 20 22
REMARK Flexibility Score: inf
ROOT
ATOM      1  N   UNL     1       0.364   1.359   0.176  1.00  0.00    -0.227 N 
ATOM      2  C   UNL     1       0.802   0.692  -0.937  1.00  0.00     0.133 A 
ATOM      3  C   UNL     1      -0.319   0.320  -1.652  1.00  0.00     0.069 A 
ATOM      4  C   UNL     1      -1.436   0.772  -0.954  1.00  0.00     0.167 A 
ATOM      5  N   UNL     1      -1.036   1.389   0.130  1.00  0.00    -0.163 NA
ENDROOT
BRANCH   1   6
ATOM      6  C   UNL     1       1.170   1.912   1.178  1.00  0.00     0.066 A 
ATOM      7  C   UNL     1       2.956   1.684   2.769  1.00  0.00     0.003 A 
ATOM      8  C   UNL     1       2.158   1.142   1.779  1.00  0.00     0.028 A 
ATOM      9  C   UNL     1       2.777   2.994   3.166  1.00  0.00     0.017 A 
ATOM     10  C   UNL     1       1.788   3.775   2.569  1.00  0.00     0.065 A 
ATOM     11  C   UNL     1       0.986   3.230   1.567  1.00  0.00     0.045 A 
BRANCH  10  12
ATOM     12  C   UNL     1       1.593   5.180   2.993  1.00  0.00     0.270 C 
ATOM     13  N   UNL     1       2.390   5.718   3.980  1.00  0.00    -0.287 N 
ATOM     14  N   UNL     1       0.638   5.867   2.386  1.00  0.00    -0.287 N 
ATOM     15  H   UNL     1       3.121   5.143   4.423  1.00  0.00     0.302 HD
ATOM     16  H   UNL     1       2.255   6.696   4.276  1.00  0.00     0.302 HD
ATOM     17  H   UNL     1       0.048   5.455   1.649  1.00  0.00     0.302 HD
ATOM     18  H   UNL     1       0.485   6.846   2.666  1.00  0.00     0.302 HD
ENDBRANCH  10  12
ENDBRANCH   1   6
BRANCH   2  19
ATOM     19  C   UNL     1       2.201   0.423  -1.302  1.00  0.00     0.274 C 
ATOM     20  O   UNL     1       3.104   0.897  -0.639  1.00  0.00    -0.267 OA
ATOM     21  N   UNL     1       2.482  -0.349  -2.370  1.00  0.00    -0.321 N 
ATOM     22  H   UNL     1       1.718  -0.727  -2.948  1.00  0.00     0.170 HD
BRANCH  21  23
ATOM     23  C   UNL     1       3.814  -0.637  -2.694  1.00  0.00     0.041 A 
ATOM     24  C   UNL     1       4.153  -1.891  -3.185  1.00  0.00     0.028 A 
ATOM     25  C   UNL     1       4.794   0.333  -2.530  1.00  0.00     0.028 A 
ATOM     26  C   UNL     1       5.466  -2.175  -3.505  1.00  0.00     0.028 A 
ATOM     27  C   UNL     1       6.107   0.048  -2.845  1.00  0.00     0.028 A 
ATOM     28  C   UNL     1       6.447  -1.206  -3.336  1.00  0.00     0.047 A 
BRANCH  28  29
ATOM     29  N   UNL     1       7.778  -1.494  -3.660  1.00  0.00    -0.280 N 
ATOM     30  C   UNL     1       8.271  -2.659  -4.141  1.00  0.00     0.349 C 
ATOM     31  C   UNL     1       8.930  -0.602  -3.547  1.00  0.00     0.165 C 
ATOM     32  N   UNL     1       9.553  -2.546  -4.516  1.00  0.00    -0.196 NA
ATOM     33  O   UNL     1       7.625  -3.688  -4.224  1.00  0.00    -0.246 OA
ATOM     34  C   UNL     1      10.015  -1.347  -4.307  1.00  0.00     0.073 C 
ATOM     35  C   UNL     1       8.740   0.736  -4.201  1.00  0.00     0.005 C 
ATOM     36  C   UNL     1      11.172  -0.700  -4.771  1.00  0.00     0.026 C 
ATOM     37  C   UNL     1       9.777   1.272  -4.878  1.00  0.00    -0.002 C 
ATOM     38  C   UNL     1      11.033   0.639  -5.023  1.00  0.00     0.002 C 
ENDBRANCH  28  29
ENDBRANCH  21  23
ENDBRANCH   2  19
BRANCH   4  39
ATOM     39  C   UNL     1      -2.870   0.579  -1.374  1.00  0.00     0.435 C 
ATOM     40  F   UNL     1      -3.712   1.258  -0.487  1.00  0.00    -0.164 F 
ATOM     41  F   UNL     1      -3.050   1.083  -2.667  1.00  0.00    -0.164 F 
ATOM     42  F   UNL     1      -3.181  -0.785  -1.359  1.00  0.00    -0.164 F 
ENDBRANCH   4  39
TORSDOF 6
