REMARK SMILES COc1ccc(Cl)cc1NC(=O)c1cnn(-c2ccc(F)cc2F)c1C1CC[NH2+]CC1
REMARK SMILES IDX 10 1 11 2 12 3 9 5 3 6 4 7 8 8 5 9 6 10 7 11 2 12 1 13 13 14
REMARK SMILES IDX 25 15 14 16 16 17 15 18 26 19 31 20 27 21 30 22 28 23 29 24
REMARK SMILES IDX 17 27 23 28 18 29 22 30 24 31 19 32 20 33 21 34
REMARK H PARENT 10 4 29 25 29 26
REMARK Flexibility Score: inf
ROOT
ATOM      1  N   UNL     1      -2.461  -0.097   0.321  1.00  0.00    -0.319 N 
ATOM      2  C   UNL     1      -3.596  -0.756   0.015  1.00  0.00     0.259 C 
ATOM      3  O   UNL     1      -3.572  -1.960  -0.159  1.00  0.00    -0.269 OA
ATOM      4  H   UNL     1      -2.494   0.907   0.548  1.00  0.00     0.170 HD
ENDROOT
BRANCH   1   5
ATOM      5  C   UNL     1      -1.236  -0.777   0.331  1.00  0.00     0.085 A 
ATOM      6  C   UNL     1      -0.152  -0.254   1.031  1.00  0.00     0.142 A 
ATOM      7  C   UNL     1       1.055  -0.933   1.042  1.00  0.00     0.050 A 
ATOM      8  C   UNL     1      -1.099  -1.971  -0.362  1.00  0.00     0.050 A 
ATOM      9  C   UNL     1       1.184  -2.126   0.355  1.00  0.00     0.024 A 
ATOM     10  C   UNL     1       0.109  -2.644  -0.346  1.00  0.00     0.043 A 
ATOM     11  Cl  UNL     1       0.278  -4.142  -1.207  1.00  0.00    -0.084 Cl
BRANCH   6  12
ATOM     12  O   UNL     1      -0.280   0.919   1.707  1.00  0.00    -0.495 OA
ATOM     13  C   UNL     1       0.872   1.393   2.408  1.00  0.00     0.278 C 
ENDBRANCH   6  12
ENDBRANCH   1   5
BRANCH   2  14
ATOM     14  C   UNL     1      -4.866  -0.019  -0.110  1.00  0.00     0.082 A 
ATOM     15  C   UNL     1      -6.117  -0.568  -0.310  1.00  0.00     0.061 A 
ATOM     16  C   UNL     1      -5.030   1.384  -0.054  1.00  0.00     0.149 A 
ATOM     17  N   UNL     1      -6.998   0.447  -0.364  1.00  0.00    -0.234 N 
ATOM     18  N   UNL     1      -6.299   1.649  -0.206  1.00  0.00    -0.175 NA
BRANCH  15  19
ATOM     19  C   UNL     1      -6.436  -2.035  -0.440  1.00  0.00     0.050 C 
ATOM     20  C   UNL     1      -5.717  -2.609  -1.664  1.00  0.00     0.071 C 
ATOM     21  C   UNL     1      -5.963  -2.776   0.814  1.00  0.00     0.071 C 
ATOM     22  C   UNL     1      -5.997  -4.111  -1.756  1.00  0.00     0.261 C 
ATOM     23  C   UNL     1      -6.235  -4.272   0.650  1.00  0.00     0.261 C 
ATOM     24  N   UNL     1      -5.525  -4.774  -0.534  1.00  0.00    -0.346 N 
ATOM     25  H   UNL     1      -5.678  -5.789  -0.618  1.00  0.00     0.346 HD
ATOM     26  H   UNL     1      -4.515  -4.600  -0.422  1.00  0.00     0.346 HD
ENDBRANCH  15  19
BRANCH  17  27
ATOM     27  C   UNL     1      -8.382   0.322  -0.552  1.00  0.00     0.101 A 
ATOM     28  C   UNL     1      -9.029   1.106  -1.500  1.00  0.00     0.151 A 
ATOM     29  C   UNL     1      -9.109  -0.581   0.211  1.00  0.00     0.034 A 
ATOM     30  C   UNL     1     -10.394   0.977  -1.687  1.00  0.00     0.080 A 
ATOM     31  F   UNL     1      -8.326   1.990  -2.241  1.00  0.00    -0.205 F 
ATOM     32  C   UNL     1     -10.472  -0.703   0.025  1.00  0.00     0.041 A 
ATOM     33  C   UNL     1     -11.115   0.075  -0.924  1.00  0.00     0.126 A 
ATOM     34  F   UNL     1     -12.448  -0.047  -1.104  1.00  0.00    -0.207 F 
ENDBRANCH  17  27
ENDBRANCH   2  14
TORSDOF 5
