REMARK SMILES O=C(Cc1ccc(F)cc1)NNC(=O)[C@H](Cc1c[nH]c2ccccc12)NC(=O)OCc1ccccc1
REMARK SMILES IDX 15 1 26 2 27 3 28 4 29 6 30 7 31 8 34 9 35 10 33 11 36 12
REMARK SMILES IDX 32 13 16 14 17 15 25 16 18 17 20 18 24 19 19 20 21 21 23 22
REMARK SMILES IDX 22 24 13 25 14 26 12 27 11 29 2 30 1 32 3 33 4 34 10 35 5 36
REMARK SMILES IDX 9 37 6 38 7 39 8 40
REMARK H PARENT 26 5 19 23 12 28 11 31
REMARK Flexibility Score: inf
ROOT
ATOM      1  C   UNL     1      -1.242   1.923  -6.029  1.00  0.00     0.181 C 
ENDROOT
BRANCH   1   2
ATOM      2  N   UNL     1      -0.556   1.450  -7.234  1.00  0.00    -0.309 N 
ATOM      3  C   UNL     1      -0.679   2.132  -8.391  1.00  0.00     0.408 C 
ATOM      4  O   UNL     1      -1.359   3.138  -8.433  1.00  0.00    -0.225 OA
ATOM      5  H   UNL     1       0.020   0.598  -7.198  1.00  0.00     0.167 HD
BRANCH   3   6
ATOM      6  O   UNL     1      -0.049   1.698  -9.498  1.00  0.00    -0.445 OA
BRANCH   6   7
ATOM      7  C   UNL     1      -0.226   2.482 -10.708  1.00  0.00     0.270 C 
BRANCH   7   8
ATOM      8  C   UNL     1       0.547   1.848 -11.835  1.00  0.00    -0.011 A 
ATOM      9  C   UNL     1       1.966   0.685 -13.904  1.00  0.00     0.000 A 
ATOM     10  C   UNL     1       2.569   1.635 -13.100  1.00  0.00     0.000 A 
ATOM     11  C   UNL     1       0.654   0.317 -13.673  1.00  0.00     0.000 A 
ATOM     12  C   UNL     1       1.858   2.220 -12.069  1.00  0.00     0.007 A 
ATOM     13  C   UNL     1      -0.056   0.898 -12.639  1.00  0.00     0.007 A 
ENDBRANCH   7   8
ENDBRANCH   6   7
ENDBRANCH   3   6
ENDBRANCH   1   2
BRANCH   1  14
ATOM     14  C   UNL     1      -2.677   1.393  -6.018  1.00  0.00     0.073 C 
BRANCH  14  15
ATOM     15  C   UNL     1      -3.442   1.990  -7.172  1.00  0.00    -0.020 A 
ATOM     16  C   UNL     1      -3.469   1.493  -8.549  1.00  0.00     0.003 A 
ATOM     17  C   UNL     1      -4.222   3.082  -7.133  1.00  0.00     0.087 A 
ATOM     18  C   UNL     1      -4.313   2.365  -9.261  1.00  0.00     0.046 A 
ATOM     19  C   UNL     1      -2.868   0.417  -9.205  1.00  0.00     0.010 A 
ATOM     20  N   UNL     1      -4.751   3.321  -8.372  1.00  0.00    -0.361 N 
ATOM     21  C   UNL     1      -4.539   2.142 -10.615  1.00  0.00     0.026 A 
ATOM     22  C   UNL     1      -3.101   0.218 -10.537  1.00  0.00     0.001 A 
ATOM     23  H   UNL     1      -5.383   4.101  -8.605  1.00  0.00     0.166 HD
ATOM     24  C   UNL     1      -3.930   1.077 -11.243  1.00  0.00     0.002 A 
ENDBRANCH  14  15
ENDBRANCH   1  14
BRANCH   1  25
ATOM     25  C   UNL     1      -0.513   1.424  -4.808  1.00  0.00     0.261 C 
ATOM     26  O   UNL     1       0.481   0.741  -4.933  1.00  0.00    -0.271 OA
ATOM     27  N   UNL     1      -0.966   1.736  -3.578  1.00  0.00    -0.266 N 
ATOM     28  H   UNL     1      -1.811   2.317  -3.472  1.00  0.00     0.191 HD
BRANCH  27  29
ATOM     29  N   UNL     1      -0.288   1.272  -2.443  1.00  0.00    -0.267 N 
ATOM     30  C   UNL     1      -0.742   1.585  -1.213  1.00  0.00     0.242 C 
ATOM     31  H   UNL     1       0.556   0.692  -2.549  1.00  0.00     0.191 HD
ATOM     32  O   UNL     1      -1.736   2.268  -1.088  1.00  0.00    -0.273 OA
BRANCH  30  33
ATOM     33  C   UNL     1      -0.013   1.086   0.008  1.00  0.00     0.137 C 
BRANCH  33  34
ATOM     34  C   UNL     1      -0.718   1.572   1.248  1.00  0.00    -0.038 A 
ATOM     35  C   UNL     1      -1.719   0.807   1.817  1.00  0.00     0.007 A 
ATOM     36  C   UNL     1      -0.359   2.779   1.818  1.00  0.00     0.007 A 
ATOM     37  C   UNL     1      -2.367   1.252   2.955  1.00  0.00     0.039 A 
ATOM     38  C   UNL     1      -1.009   3.228   2.953  1.00  0.00     0.039 A 
ATOM     39  C   UNL     1      -2.012   2.463   3.524  1.00  0.00     0.123 A 
ATOM     40  F   UNL     1      -2.644   2.899   4.635  1.00  0.00    -0.207 F 
ENDBRANCH  33  34
ENDBRANCH  30  33
ENDBRANCH  27  29
ENDBRANCH   1  25
TORSDOF 10
