REMARK SMILES COc1cccc(CSc2nc(O)cc(CC(=O)Nc3nc4c(C)cccc4s3)n2)c1
REMARK SMILES IDX 15 1 14 2 12 3 11 4 10 5 30 6 16 7 17 8 19 9 18 11 20 12
REMARK SMILES IDX 24 13 23 14 22 15 25 16 28 17 21 18 26 19 27 20 29 21 13 22
REMARK SMILES IDX 9 24 8 25 7 26 31 27 6 28 3 29 5 30 4 31 2 32 1 33
REMARK H PARENT 19 10 13 23
REMARK Flexibility Score: inf
ROOT
ATOM      1  C   UNL     1      -6.893   2.911   7.109  1.00  0.00     0.058 A 
ATOM      2  C   UNL     1      -7.045   2.345   8.342  1.00  0.00     0.092 A 
ATOM      3  C   UNL     1      -6.401   1.125   8.614  1.00  0.00     0.215 A 
ATOM      4  N   UNL     1      -5.653   0.556   7.645  1.00  0.00    -0.187 NA
ATOM      5  C   UNL     1      -5.538   1.166   6.433  1.00  0.00     0.191 A 
ATOM      6  N   UNL     1      -6.141   2.313   6.188  1.00  0.00    -0.227 NA
ENDROOT
BRANCH   1   7
ATOM      7  C   UNL     1      -7.577   4.215   6.791  1.00  0.00     0.156 C 
BRANCH   7   8
ATOM      8  C   UNL     1      -6.623   5.356   7.035  1.00  0.00     0.232 C 
ATOM      9  N   UNL     1      -7.021   6.625   6.816  1.00  0.00    -0.302 N 
ATOM     10  H   UNL     1      -7.976   6.816   6.482  1.00  0.00     0.172 HD
ATOM     11  O   UNL     1      -5.499   5.132   7.429  1.00  0.00    -0.274 OA
BRANCH   9  12
ATOM     12  C   UNL     1      -6.144   7.674   7.042  1.00  0.00     0.190 A 
ATOM     13  C   UNL     1      -6.758  11.917   6.547  1.00  0.00     0.047 C 
ATOM     14  C   UNL     1      -5.474  11.287   7.022  1.00  0.00    -0.024 A 
ATOM     15  C   UNL     1      -5.389   9.881   7.146  1.00  0.00     0.087 A 
ATOM     16  C   UNL     1      -4.402  12.083   7.329  1.00  0.00     0.006 A 
ATOM     17  C   UNL     1      -4.151   9.368   7.597  1.00  0.00     0.057 A 
ATOM     18  N   UNL     1      -6.342   8.962   6.882  1.00  0.00    -0.220 NA
ATOM     19  C   UNL     1      -3.201  11.545   7.769  1.00  0.00     0.002 A 
ATOM     20  C   UNL     1      -3.083  10.173   7.902  1.00  0.00     0.021 A 
ATOM     21  S   UNL     1      -4.452   7.617   7.615  1.00  0.00    -0.097 S 
ENDBRANCH   9  12
ENDBRANCH   7   8
ENDBRANCH   1   7
BRANCH   3  22
ATOM     22  O   UNL     1      -6.514   0.592   9.706  1.00  0.00    -0.493 OA
ATOM     23  H   UNL     1      -7.491   0.491   9.831  1.00  0.00     0.295 HD
ENDBRANCH   3  22
BRANCH   5  24
ATOM     24  S   UNL     1      -4.566   0.412   5.172  1.00  0.00    -0.081 SA
BRANCH  24  25
ATOM     25  C   UNL     1      -4.774   1.626   3.846  1.00  0.00     0.113 C 
BRANCH  25  26
ATOM     26  C   UNL     1      -4.007   1.177   2.629  1.00  0.00    -0.034 A 
ATOM     27  C   UNL     1      -2.690   1.559   2.464  1.00  0.00     0.051 A 
ATOM     28  C   UNL     1      -4.622   0.380   1.681  1.00  0.00     0.005 A 
ATOM     29  C   UNL     1      -1.986   1.149   1.340  1.00  0.00     0.119 A 
ATOM     30  C   UNL     1      -3.921  -0.034   0.563  1.00  0.00     0.004 A 
ATOM     31  C   UNL     1      -2.604   0.349   0.391  1.00  0.00     0.046 A 
BRANCH  29  32
ATOM     32  O   UNL     1      -0.692   1.528   1.173  1.00  0.00    -0.497 OA
ATOM     33  C   UNL     1      -0.027   1.064  -0.004  1.00  0.00     0.278 C 
ENDBRANCH  29  32
ENDBRANCH  25  26
ENDBRANCH  24  25
ENDBRANCH   5  24
TORSDOF 8
