REMARK SMILES C[C@@H]1CCc2c(sc3nc(SCC(=O)Nc4c(F)c(F)c(F)c(F)c4F)nc(N)c23)C1
REMARK SMILES IDX 12 1 11 2 10 3 1 4 2 5 31 6 3 7 6 8 4 9 5 10 7 11 30 12 8 13
REMARK SMILES IDX 28 14 9 15 27 16 29 17 13 20 14 21 15 22 16 24 17 25 25 26
REMARK SMILES IDX 19 27 18 28 23 29 26 30 21 31 20 32 24 33 22 34
REMARK H PARENT 29 18 29 19 15 23
REMARK Flexibility Score: inf
ROOT
ATOM      1  C   UNL     1       8.427   3.401   0.387  1.00  0.00     0.178 C 
ENDROOT
BRANCH   1   2
ATOM      2  S   UNL     1       7.762   3.571  -1.288  1.00  0.00    -0.076 SA
BRANCH   2   3
ATOM      3  C   UNL     1       6.465   2.380  -1.224  1.00  0.00     0.191 A 
ATOM      4  C   UNL     1       0.135  -3.183  -1.749  1.00  0.00     0.008 C 
ATOM      5  C   UNL     1       1.474  -2.456  -1.605  1.00  0.00    -0.009 C 
ATOM      6  C   UNL     1       1.575  -1.349  -2.664  1.00  0.00     0.050 C 
ATOM      7  C   UNL     1       1.568  -1.816  -0.217  1.00  0.00     0.008 C 
ATOM      8  C   UNL     1       2.734  -0.466  -2.318  1.00  0.00     0.011 A 
ATOM      9  C   UNL     1       2.989  -1.306   0.023  1.00  0.00     0.038 C 
ATOM     10  C   UNL     1       3.397  -0.408  -1.142  1.00  0.00    -0.021 A 
ATOM     11  S   UNL     1       3.531   0.728  -3.363  1.00  0.00    -0.120 S 
ATOM     12  C   UNL     1       4.497   0.540  -1.058  1.00  0.00     0.057 A 
ATOM     13  C   UNL     1       4.751   1.302  -2.226  1.00  0.00     0.130 A 
ATOM     14  C   UNL     1       5.339   0.780   0.066  1.00  0.00     0.137 A 
ATOM     15  N   UNL     1       5.711   2.201  -2.311  1.00  0.00    -0.211 NA
ATOM     16  N   UNL     1       6.283   1.703  -0.100  1.00  0.00    -0.205 NA
BRANCH  14  17
ATOM     17  N   UNL     1       5.184   0.097   1.258  1.00  0.00    -0.383 N 
ATOM     18  H   UNL     1       4.434  -0.606   1.328  1.00  0.00     0.158 HD
ATOM     19  H   UNL     1       5.802   0.282   2.061  1.00  0.00     0.158 HD
ENDBRANCH  14  17
ENDBRANCH   2   3
ENDBRANCH   1   2
BRANCH   1  20
ATOM     20  C   UNL     1       9.582   4.353   0.568  1.00  0.00     0.235 C 
ATOM     21  O   UNL     1       9.921   5.075  -0.346  1.00  0.00    -0.274 OA
ATOM     22  N   UNL     1      10.237   4.401   1.744  1.00  0.00    -0.320 N 
ATOM     23  H   UNL     1       9.911   3.832   2.539  1.00  0.00     0.170 HD
BRANCH  22  24
ATOM     24  C   UNL     1      11.362   5.227   1.887  1.00  0.00     0.120 A 
ATOM     25  C   UNL     1      11.212   6.608   1.915  1.00  0.00     0.188 A 
ATOM     26  C   UNL     1      12.627   4.664   2.007  1.00  0.00     0.188 A 
ATOM     27  C   UNL     1      12.324   7.421   2.056  1.00  0.00     0.199 A 
ATOM     28  F   UNL     1       9.983   7.157   1.804  1.00  0.00    -0.201 F 
ATOM     29  C   UNL     1      13.737   5.481   2.143  1.00  0.00     0.199 A 
ATOM     30  F   UNL     1      12.774   3.321   1.986  1.00  0.00    -0.201 F 
ATOM     31  C   UNL     1      13.586   6.859   2.170  1.00  0.00     0.200 A 
ATOM     32  F   UNL     1      12.179   8.764   2.083  1.00  0.00    -0.200 F 
ATOM     33  F   UNL     1      14.967   4.935   2.254  1.00  0.00    -0.200 F 
ATOM     34  F   UNL     1      14.669   7.654   2.307  1.00  0.00    -0.200 F 
ENDBRANCH  22  24
ENDBRANCH   1  20
TORSDOF 5
