REMARK SMILES O=C(COC(=O)c1ccc(-c2nc(=O)c3c(-c4ccccc4)csc3[nH]2)cc1)NC(=O)c1ccc[nH]1
REMARK SMILES IDX 5 1 6 2 7 3 10 4 27 5 9 6 28 7 8 8 11 9 16 10 15 11 23 12
REMARK SMILES IDX 25 13 13 14 24 15 26 16 14 17 12 18 17 20 20 21 21 22 19 23
REMARK SMILES IDX 22 24 18 25 4 26 3 27 2 28 1 29 29 30 30 31 31 33 32 34
REMARK SMILES IDX 36 35 33 36 35 37 34 39
REMARK H PARENT 26 19 29 32 36 38
REMARK Flexibility Score: inf
ROOT
ATOM      1  C   UNL     1      -0.014   1.210   0.009  1.00  0.00     0.338 C 
ATOM      2  O   UNL     1       0.002  -0.004   0.002  1.00  0.00    -0.246 OA
ENDROOT
BRANCH   1   3
ATOM      3  C   UNL     1      -1.304   1.932   0.019  1.00  0.00     0.060 A 
ATOM      4  C   UNL     1      -3.724   3.286   0.038  1.00  0.00     0.017 A 
ATOM      5  C   UNL     1      -2.524   4.001   0.036  1.00  0.00     0.013 A 
ATOM      6  C   UNL     1      -3.705   1.889   0.030  1.00  0.00     0.013 A 
ATOM      7  C   UNL     1      -1.323   3.329   0.032  1.00  0.00     0.016 A 
ATOM      8  C   UNL     1      -2.504   1.217   0.021  1.00  0.00     0.016 A 
BRANCH   4   9
ATOM      9  C   UNL     1      -5.014   4.007   0.048  1.00  0.00     0.142 A 
ATOM     10  C   UNL     1      -8.779   5.863   0.076  1.00  0.00     0.007 A 
ATOM     11  C   UNL     1      -7.417   5.346   0.067  1.00  0.00     0.084 A 
ATOM     12  C   UNL     1      -9.811   4.983   0.076  1.00  0.00     0.076 A 
ATOM     13  C   UNL     1      -7.312   3.943   0.058  1.00  0.00     0.108 A 
ATOM     14  C   UNL     1      -6.178   6.064   0.066  1.00  0.00     0.282 A 
ATOM     15  S   UNL     1      -9.000   3.396   0.062  1.00  0.00    -0.125 S 
ATOM     16  N   UNL     1      -6.139   3.325   0.045  1.00  0.00    -0.331 N 
ATOM     17  O   UNL     1      -6.170   7.283   0.073  1.00  0.00    -0.267 OA
ATOM     18  N   UNL     1      -5.022   5.375   0.056  1.00  0.00    -0.191 NA
ATOM     19  H   UNL     1      -6.108   2.296   0.031  1.00  0.00     0.169 HD
BRANCH  10  20
ATOM     20  C   UNL     1      -9.032   7.324   0.087  1.00  0.00    -0.017 A 
ATOM     21  C   UNL     1      -9.505  10.052   0.106  1.00  0.00     0.000 A 
ATOM     22  C   UNL     1      -8.624   9.498   1.018  1.00  0.00     0.001 A 
ATOM     23  C   UNL     1     -10.151   9.247  -0.815  1.00  0.00     0.001 A 
ATOM     24  C   UNL     1      -8.389   8.139   1.017  1.00  0.00     0.009 A 
ATOM     25  C   UNL     1      -9.919   7.887  -0.829  1.00  0.00     0.009 A 
ENDBRANCH  10  20
ENDBRANCH   4   9
ENDBRANCH   1   3
BRANCH   1  26
ATOM     26  O   UNL     1       1.143   1.900   0.001  1.00  0.00    -0.452 OA
BRANCH  26  27
ATOM     27  C   UNL     1       2.371   1.126  -0.015  1.00  0.00     0.333 C 
BRANCH  27  28
ATOM     28  C   UNL     1       3.554   2.060  -0.021  1.00  0.00     0.264 C 
ATOM     29  O   UNL     1       3.379   3.260  -0.013  1.00  0.00    -0.271 OA
ATOM     30  N   UNL     1       4.806   1.562  -0.035  1.00  0.00    -0.288 N 
ATOM     31  C   UNL     1       5.864   2.397  -0.041  1.00  0.00     0.274 C 
ATOM     32  H   UNL     1       4.955   0.543  -0.042  1.00  0.00     0.173 HD
ATOM     33  O   UNL     1       5.688   3.601  -0.033  1.00  0.00    -0.267 OA
BRANCH  31  34
ATOM     34  C   UNL     1       7.225   1.856  -0.057  1.00  0.00     0.104 A 
ATOM     35  N   UNL     1       7.571   0.523  -0.067  1.00  0.00    -0.357 N 
ATOM     36  C   UNL     1       8.395   2.588  -0.070  1.00  0.00     0.033 A 
ATOM     37  C   UNL     1       8.918   0.425  -0.081  1.00  0.00     0.083 A 
ATOM     38  H   UNL     1       6.912  -0.268  -0.065  1.00  0.00     0.166 HD
ATOM     39  C   UNL     1       9.450   1.671  -0.079  1.00  0.00     0.020 A 
ENDBRANCH  31  34
ENDBRANCH  27  28
ENDBRANCH  26  27
ENDBRANCH   1  26
TORSDOF 7
