REMARK SMILES O=C(NCc1ccc([N+](=O)[O-])cc1)c1cc2cc(Br)ccc2c(Br)c1[O-]
REMARK SMILES IDX 4 1 5 2 6 3 7 4 13 5 8 6 12 7 9 8 11 9 10 10 3 11 2 12 1 14
REMARK SMILES IDX 14 15 25 16 15 17 23 18 26 19 16 20 22 21 24 22 17 23 21 24
REMARK SMILES IDX 18 25 20 26 19 27
REMARK H PARENT 3 13
REMARK Flexibility Score: inf
ROOT
ATOM      1  C   UNL     1       1.151   3.592   0.010  1.00  0.00     0.152 C 
ENDROOT
BRANCH   1   2
ATOM      2  C   UNL     1       1.171   2.086   0.002  1.00  0.00    -0.028 A 
ATOM      3  C   UNL     1      -0.017   1.378   0.010  1.00  0.00     0.012 A 
ATOM      4  C   UNL     1       0.002  -0.004   0.002  1.00  0.00     0.086 A 
ATOM      5  C   UNL     1       2.377   1.411  -0.014  1.00  0.00     0.012 A 
ATOM      6  C   UNL     1       1.208  -0.679  -0.014  1.00  0.00     0.269 A 
ATOM      7  C   UNL     1       2.396   0.029  -0.021  1.00  0.00     0.086 A 
BRANCH   6   8
ATOM      8  N   UNL     1       1.228  -2.159  -0.022  1.00  0.00     0.062 N 
ATOM      9  O   UNL     1       0.182  -2.782  -0.015  1.00  0.00    -0.258 OA
ATOM     10  O   UNL     1       2.291  -2.753  -0.036  1.00  0.00    -0.258 OA
ENDBRANCH   6   8
ENDBRANCH   1   2
BRANCH   1  11
ATOM     11  N   UNL     1       1.157   4.073   1.394  1.00  0.00    -0.348 N 
ATOM     12  C   UNL     1       1.141   5.397   1.648  1.00  0.00     0.250 C 
ATOM     13  H   UNL     1       1.174   3.400   2.173  1.00  0.00     0.164 HD
ATOM     14  O   UNL     1       1.122   6.192   0.728  1.00  0.00    -0.269 OA
BRANCH  12  15
ATOM     15  C   UNL     1       1.148   5.881   3.042  1.00  0.00     0.033 A 
ATOM     16  C   UNL     1       1.138   7.267   3.302  1.00  0.00    -0.081 A 
ATOM     17  C   UNL     1       1.170   4.971   4.087  1.00  0.00     0.022 A 
ATOM     18  C   UNL     1       1.139   7.736   4.584  1.00  0.00     0.018 A 
ATOM     19  O   UNL     1       1.121   8.145   2.266  1.00  0.00    -0.871 OA
ATOM     20  C   UNL     1       1.177   5.437   5.409  1.00  0.00    -0.015 A 
ATOM     21  C   UNL     1       1.161   6.833   5.661  1.00  0.00    -0.005 A 
ATOM     22  Br  UNL     1       1.117   9.598   4.911  1.00  0.00    -0.051 Br
ATOM     23  C   UNL     1       1.200   4.541   6.494  1.00  0.00     0.024 A 
ATOM     24  C   UNL     1       1.168   7.292   6.990  1.00  0.00     0.011 A 
ATOM     25  C   UNL     1       1.207   5.023   7.766  1.00  0.00     0.018 A 
ATOM     26  C   UNL     1       1.191   6.396   8.013  1.00  0.00     0.016 A 
ATOM     27  Br  UNL     1       1.239   3.815   9.221  1.00  0.00    -0.051 Br
ENDBRANCH  12  15
ENDBRANCH   1  11
TORSDOF 4
