REMARK SMILES C=CCn1c(SCC(=O)c2ccc(O)cc2O)nc2scc(-c3ccccc3)c2c1=O
REMARK SMILES IDX 7 1 6 2 5 3 4 4 30 5 18 6 31 7 29 8 19 9 22 10 20 11 21 12
REMARK SMILES IDX 3 13 2 14 1 15 23 16 28 17 24 18 27 19 25 20 26 21 8 22 9 23
REMARK SMILES IDX 10 24 16 25 11 26 15 27 12 28 13 29 17 30 14 32
REMARK H PARENT 17 31 14 33
REMARK Flexibility Score: inf
ROOT
ATOM      1  C   UNL     1       3.093  -2.697  -0.041  1.00  0.00     0.159 C 
ENDROOT
BRANCH   1   2
ATOM      2  S   UNL     1       3.787  -1.025  -0.038  1.00  0.00    -0.080 SA
BRANCH   2   3
ATOM      3  C   UNL     1       2.302  -0.077  -0.019  1.00  0.00     0.173 A 
ATOM      4  N   UNL     1       2.373   1.286  -0.013  1.00  0.00    -0.283 N 
ATOM      5  C   UNL     1       1.260   2.042   0.001  1.00  0.00     0.263 A 
ATOM      6  N   UNL     1       1.137  -0.693  -0.012  1.00  0.00    -0.213 NA
ATOM      7  O   UNL     1       1.341   3.259   0.006  1.00  0.00    -0.268 OA
ATOM      8  C   UNL     1      -0.017   1.401   0.010  1.00  0.00     0.085 A 
ATOM      9  C   UNL     1       0.002  -0.004   0.002  1.00  0.00     0.132 A 
ATOM     10  C   UNL     1      -1.348   2.000   0.031  1.00  0.00     0.007 A 
ATOM     11  S   UNL     1      -1.716  -0.448   0.016  1.00  0.00    -0.123 S 
ATOM     12  C   UNL     1      -2.429   1.185   0.032  1.00  0.00     0.076 A 
BRANCH   4  13
ATOM     13  C   UNL     1       3.685   1.938  -0.022  1.00  0.00     0.155 C 
BRANCH  13  14
ATOM     14  C   UNL     1       4.122   2.168  -1.446  1.00  0.00    -0.013 C 
ATOM     15  C   UNL     1       4.450   3.373  -1.843  1.00  0.00     0.006 C 
ENDBRANCH  13  14
ENDBRANCH   4  13
BRANCH  10  16
ATOM     16  C   UNL     1      -1.513   3.473   0.042  1.00  0.00    -0.017 A 
ATOM     17  C   UNL     1      -2.374   4.087  -0.867  1.00  0.00     0.009 A 
ATOM     18  C   UNL     1      -0.813   4.249   0.964  1.00  0.00     0.009 A 
ATOM     19  C   UNL     1      -2.524   5.459  -0.852  1.00  0.00     0.001 A 
ATOM     20  C   UNL     1      -0.966   5.621   0.966  1.00  0.00     0.001 A 
ATOM     21  C   UNL     1      -1.822   6.225   0.062  1.00  0.00     0.000 A 
ENDBRANCH  10  16
ENDBRANCH   2   3
ENDBRANCH   1   2
BRANCH   1  22
ATOM     22  C   UNL     1       4.212  -3.706  -0.057  1.00  0.00     0.176 C 
ATOM     23  O   UNL     1       5.366  -3.331  -0.065  1.00  0.00    -0.293 OA
BRANCH  22  24
ATOM     24  C   UNL     1       3.907  -5.138  -0.061  1.00  0.00     0.060 A 
ATOM     25  C   UNL     1       4.949  -6.083  -0.082  1.00  0.00     0.130 A 
ATOM     26  C   UNL     1       2.575  -5.575  -0.051  1.00  0.00     0.019 A 
ATOM     27  C   UNL     1       4.647  -7.434  -0.082  1.00  0.00     0.093 A 
ATOM     28  C   UNL     1       2.293  -6.910  -0.057  1.00  0.00     0.047 A 
ATOM     29  C   UNL     1       3.322  -7.847  -0.072  1.00  0.00     0.119 A 
BRANCH  25  30
ATOM     30  O   UNL     1       6.241  -5.673  -0.097  1.00  0.00    -0.507 OA
ATOM     31  H   UNL     1       6.332  -5.094   0.701  1.00  0.00     0.293 HD
ENDBRANCH  25  30
BRANCH  29  32
ATOM     32  O   UNL     1       3.029  -9.172  -0.078  1.00  0.00    -0.508 OA
ATOM     33  H   UNL     1       2.449  -9.302  -0.870  1.00  0.00     0.293 HD
ENDBRANCH  29  32
ENDBRANCH  22  24
ENDBRANCH   1  22
TORSDOF 9
