REMARK SMILES COC(=O)c1ccc([C@H]2c3c(nc(N)[nH]c3=O)N=C3c4ccccc4C(=O)C32)cc1
REMARK SMILES IDX 5 1 6 2 7 3 8 4 29 5 30 6 3 7 4 8 2 9 1 10 9 11 28 12 10 13
REMARK SMILES IDX 19 14 26 15 11 16 16 17 18 18 20 19 25 20 27 21 12 22 17 23
REMARK SMILES IDX 15 24 21 25 24 26 13 27 22 29 23 30 14 31
REMARK H PARENT 15 28 14 32 14 33
REMARK Flexibility Score: inf
ROOT
ATOM      1  C   UNL     1      -7.115   2.616  -3.409  1.00  0.00     0.060 A 
ATOM      2  C   UNL     1      -7.640   2.411  -2.131  1.00  0.00     0.016 A 
ATOM      3  C   UNL     1      -6.905   2.773  -1.021  1.00  0.00     0.005 A 
ATOM      4  C   UNL     1      -5.651   3.338  -1.171  1.00  0.00    -0.039 A 
ATOM      5  C   UNL     1      -5.128   3.549  -2.434  1.00  0.00     0.005 A 
ATOM      6  C   UNL     1      -5.849   3.187  -3.553  1.00  0.00     0.016 A 
ENDROOT
BRANCH   1   7
ATOM      7  C   UNL     1      -7.896   2.232  -4.602  1.00  0.00     0.337 C 
ATOM      8  O   UNL     1      -8.998   1.736  -4.473  1.00  0.00    -0.246 OA
BRANCH   7   9
ATOM      9  O   UNL     1      -7.387   2.431  -5.833  1.00  0.00    -0.465 OA
ATOM     10  C   UNL     1      -8.210   2.029  -6.960  1.00  0.00     0.282 C 
ENDBRANCH   7   9
ENDBRANCH   1   7
BRANCH   4  11
ATOM     11  C   UNL     1      -4.855   3.732   0.046  1.00  0.00     0.076 C 
ATOM     12  C   UNL     1      -4.714   5.241   0.054  1.00  0.00     0.123 C 
ATOM     13  C   UNL     1      -3.558   2.954   0.036  1.00  0.00     0.071 A 
ATOM     14  C   UNL     1      -3.354   5.790   0.051  1.00  0.00     0.063 C 
ATOM     15  C   UNL     1      -5.602   6.254   0.064  1.00  0.00     0.173 C 
ATOM     16  C   UNL     1      -2.353   3.652   0.034  1.00  0.00     0.165 A 
ATOM     17  C   UNL     1      -3.554   1.559   0.028  1.00  0.00     0.258 A 
ATOM     18  N   UNL     1      -2.311   5.001   0.042  1.00  0.00    -0.232 NA
ATOM     19  C   UNL     1      -3.498   7.271   0.060  1.00  0.00     0.008 A 
ATOM     20  C   UNL     1      -4.878   7.545   0.068  1.00  0.00     0.027 A 
ATOM     21  O   UNL     1      -6.948   6.113   0.069  1.00  0.00    -0.293 OA
ATOM     22  N   UNL     1      -1.202   2.948   0.029  1.00  0.00    -0.195 NA
ATOM     23  O   UNL     1      -4.601   0.932   0.029  1.00  0.00    -0.269 OA
ATOM     24  N   UNL     1      -2.365   0.918   0.018  1.00  0.00    -0.293 N 
ATOM     25  C   UNL     1      -2.585   8.309   0.062  1.00  0.00     0.011 A 
ATOM     26  C   UNL     1      -5.313   8.864   0.078  1.00  0.00     0.012 A 
ATOM     27  C   UNL     1      -1.207   1.635   0.017  1.00  0.00     0.202 A 
ATOM     28  H   UNL     1      -2.333  -0.112   0.012  1.00  0.00     0.173 HD
ATOM     29  C   UNL     1      -3.034   9.624   0.072  1.00  0.00     0.001 A 
ATOM     30  C   UNL     1      -4.386   9.898   0.079  1.00  0.00     0.001 A 
BRANCH  27  31
ATOM     31  N   UNL     1      -0.011   0.966   0.007  1.00  0.00    -0.369 N 
ATOM     32  H   UNL     1       0.016  -0.064   0.002  1.00  0.00     0.159 HD
ATOM     33  H   UNL     1       0.869   1.500   0.006  1.00  0.00     0.159 HD
ENDBRANCH  27  31
ENDBRANCH   4  11
TORSDOF 4
