REMARK SMILES O=c1c(/C=C/c2ccc(Cl)cc2)ccc2n1C[C@H]1C[C@@H]2C[N@H+](Cc2ccc(CO)o2)C1
REMARK SMILES IDX 23 1 22 2 3 3 2 4 13 5 16 6 1 7 14 8 15 9 17 10 20 11 18 12
REMARK SMILES IDX 19 13 21 14 31 15 4 17 5 18 6 19 7 20 8 21 12 22 9 23 11 24
REMARK SMILES IDX 10 25 24 26 30 27 25 28 27 29 26 30 28 31 29 32
REMARK H PARENT 22 16 29 33
REMARK Flexibility Score: inf
ROOT
ATOM      1  C   UNL     1      -5.636   2.371  -3.586  1.00  0.00     0.338 C 
ENDROOT
BRANCH   1   2
ATOM      2  N   UNL     1      -5.431   2.422  -2.125  1.00  0.00    -0.328 N 
ATOM      3  C   UNL     1      -1.339   1.983   0.017  1.00  0.00     0.040 A 
ATOM      4  C   UNL     1      -2.518   1.206   0.118  1.00  0.00     0.258 A 
ATOM      5  C   UNL     1      -1.457   3.366  -0.071  1.00  0.00     0.015 A 
ATOM      6  N   UNL     1      -3.735   1.802   0.165  1.00  0.00    -0.311 N 
ATOM      7  O   UNL     1      -2.439  -0.010   0.165  1.00  0.00    -0.269 OA
ATOM      8  C   UNL     1      -2.733   3.927  -0.091  1.00  0.00     0.023 A 
ATOM      9  C   UNL     1      -3.842   3.141  -0.007  1.00  0.00     0.030 A 
ATOM     10  C   UNL     1      -4.882   0.936   0.442  1.00  0.00     0.135 C 
ATOM     11  C   UNL     1      -5.184   3.824  -0.151  1.00  0.00     0.092 C 
ATOM     12  C   UNL     1      -6.203   1.582   0.060  1.00  0.00     0.065 C 
ATOM     13  C   UNL     1      -6.246   3.013   0.602  1.00  0.00     0.027 C 
ATOM     14  C   UNL     1      -5.549   3.817  -1.644  1.00  0.00     0.272 C 
ATOM     15  C   UNL     1      -6.425   1.567  -1.445  1.00  0.00     0.267 C 
ATOM     16  H   UNL     1      -4.486   2.073  -1.908  1.00  0.00     0.348 HD
BRANCH   3  17
ATOM     17  C   UNL     1      -0.016   1.341   0.009  1.00  0.00     0.014 C 
ATOM     18  C   UNL     1       0.080  -0.000  -0.022  1.00  0.00     0.009 C 
BRANCH  18  19
ATOM     19  C   UNL     1       1.400  -0.641  -0.152  1.00  0.00    -0.026 A 
ATOM     20  C   UNL     1       2.554   0.142  -0.249  1.00  0.00     0.009 A 
ATOM     21  C   UNL     1       3.787  -0.465  -0.365  1.00  0.00     0.021 A 
ATOM     22  C   UNL     1       1.504  -2.035  -0.184  1.00  0.00     0.009 A 
ATOM     23  C   UNL     1       3.883  -1.846  -0.396  1.00  0.00     0.041 A 
ATOM     24  C   UNL     1       2.743  -2.628  -0.306  1.00  0.00     0.021 A 
ATOM     25  Cl  UNL     1       5.438  -2.601  -0.549  1.00  0.00    -0.084 Cl
ENDBRANCH  18  19
ENDBRANCH   3  17
ENDBRANCH   1   2
BRANCH   1  26
ATOM     26  C   UNL     1      -4.803   3.444  -4.239  1.00  0.00     0.158 A 
ATOM     27  O   UNL     1      -5.205   4.698  -4.505  1.00  0.00    -0.458 OA
ATOM     28  C   UNL     1      -3.529   3.311  -4.648  1.00  0.00     0.052 A 
ATOM     29  C   UNL     1      -4.203   5.375  -5.089  1.00  0.00     0.129 A 
ATOM     30  C   UNL     1      -3.143   4.554  -5.201  1.00  0.00     0.048 A 
BRANCH  29  31
ATOM     31  C   UNL     1      -4.256   6.811  -5.541  1.00  0.00     0.231 C 
BRANCH  31  32
ATOM     32  O   UNL     1      -4.710   6.868  -6.895  1.00  0.00    -0.388 OA
ATOM     33  H   UNL     1      -5.614   6.469  -6.958  1.00  0.00     0.211 HD
ENDBRANCH  31  32
ENDBRANCH  29  31
ENDBRANCH   1  26
TORSDOF 6
