REMARK SMILES N#C/C(C(=O)CN1CCN(c2ccccc2O)CC1)=C1/NN=C2CCCCCN21
REMARK SMILES IDX 4 1 5 2 6 3 7 4 10 5 18 6 9 7 19 8 8 9 11 10 13 11 12 12
REMARK SMILES IDX 14 13 15 14 16 15 17 16 3 18 20 19 29 20 21 21 23 22 22 23
REMARK SMILES IDX 2 25 1 26 28 27 27 28 24 30 25 31 26 32
REMARK H PARENT 17 17 21 24
REMARK Flexibility Score: 90.00
ROOT
ATOM      1  C   UNL     1      -1.099   1.195   1.333  1.00  0.00     0.191 C 
ATOM      2  O   UNL     1      -2.188   1.727   1.224  1.00  0.00    -0.292 OA
ENDROOT
BRANCH   1   3
ATOM      3  C   UNL     1      -0.249   0.963   0.110  1.00  0.00     0.166 C 
BRANCH   3   4
ATOM      4  N   UNL     1      -0.962   1.489  -1.074  1.00  0.00    -0.292 NA
ATOM      5  N   UNL     1      -2.024   1.283  -3.710  1.00  0.00    -0.366 N 
ATOM      6  C   UNL     1      -2.910   1.274  -2.538  1.00  0.00     0.132 C 
ATOM      7  C   UNL     1      -0.813   2.072  -3.445  1.00  0.00     0.132 C 
ATOM      8  C   UNL     1      -2.165   0.674  -1.343  1.00  0.00     0.106 C 
ATOM      9  C   UNL     1      -0.067   1.472  -2.251  1.00  0.00     0.106 C 
BRANCH   5  10
ATOM     10  C   UNL     1      -2.695   1.759  -4.842  1.00  0.00     0.079 A 
ATOM     11  C   UNL     1      -4.610   2.807  -5.835  1.00  0.00     0.002 A 
ATOM     12  C   UNL     1      -3.949   2.338  -4.715  1.00  0.00     0.030 A 
ATOM     13  C   UNL     1      -4.024   2.702  -7.083  1.00  0.00     0.004 A 
ATOM     14  C   UNL     1      -2.774   2.126  -7.217  1.00  0.00     0.048 A 
ATOM     15  C   UNL     1      -2.103   1.658  -6.099  1.00  0.00     0.138 A 
BRANCH  15  16
ATOM     16  O   UNL     1      -0.871   1.097  -6.229  1.00  0.00    -0.506 OA
ATOM     17  H   UNL     1      -0.323   1.787  -6.680  1.00  0.00     0.293 HD
ENDBRANCH  15  16
ENDBRANCH   5  10
ENDBRANCH   3   4
ENDBRANCH   1   3
BRANCH   1  18
ATOM     18  C   UNL     1      -0.635   0.799   2.595  1.00  0.00     0.139 C 
ATOM     19  C   UNL     1      -1.431   1.017   3.740  1.00  0.00     0.149 C 
ATOM     20  N   UNL     1      -1.125   0.693   5.021  1.00  0.00    -0.312 N 
ATOM     21  N   UNL     1      -2.650   1.595   3.784  1.00  0.00    -0.260 N 
ATOM     22  C   UNL     1      -2.093   1.061   5.859  1.00  0.00     0.130 C 
ATOM     23  N   UNL     1      -3.047   1.610   5.124  1.00  0.00    -0.160 NA
ATOM     24  H   UNL     1      -3.185   1.957   2.983  1.00  0.00     0.192 HD
BRANCH  18  25
ATOM     25  C   UNL     1       0.647   0.173   2.723  1.00  0.00     0.107 C 
ATOM     26  N   UNL     1       1.664  -0.323   2.824  1.00  0.00    -0.192 NA
ENDBRANCH  18  25
BRANCH  20  27
ATOM     27  C   UNL     1       0.084   0.017   5.483  1.00  0.00     0.125 C 
BRANCH  27  28
ATOM     28  C   UNL     1       0.067  -0.235   6.989  1.00  0.00     0.022 CG0
ATOM     29  G   UNL     1      -1.088  -1.190   7.221  1.00  0.00     0.000 G0
ENDBRANCH  27  28
ENDBRANCH  20  27
BRANCH  22  30
ATOM     30  C   UNL     1      -2.273   0.981   7.346  1.00  0.00     0.077 C 
BRANCH  30  31
ATOM     31  C   UNL     1      -2.352  -0.485   7.830  1.00  0.00     0.008 C 
BRANCH  31  32
ATOM     32  C   UNL     1      -1.088  -1.190   7.221  1.00  0.00     0.002 CG0
ATOM     33  G   UNL     1       0.067  -0.235   6.989  1.00  0.00     0.000 G0
ENDBRANCH  31  32
ENDBRANCH  30  31
ENDBRANCH  22  30
ENDBRANCH   1  18
TORSDOF 6
