REMARK SMILES O=C(NC[C@@H](c1cccs1)c1c[nH]c2ccccc12)c1ccn(-c2cccc([N+](=O)[O-])c2)n1
REMARK SMILES IDX 3 1 2 2 1 3 4 5 5 6 11 7 17 8 18 9 16 10 19 11 15 12 14 13
REMARK SMILES IDX 13 14 12 15 6 17 10 18 7 19 9 20 8 21 20 22 33 23 21 24
REMARK SMILES IDX 23 25 22 26 24 27 32 28 25 29 28 30 26 31 27 32 29 33 31 34
REMARK SMILES IDX 30 35
REMARK H PARENT 3 4 13 16
REMARK Flexibility Score: inf
ROOT
ATOM      1  N   UNL     1       2.862   8.242   0.023  1.00  0.00    -0.350 N 
ATOM      2  C   UNL     1       1.527   8.428   0.036  1.00  0.00     0.271 C 
ATOM      3  O   UNL     1       1.070   9.555   0.047  1.00  0.00    -0.267 OA
ATOM      4  H   UNL     1       3.248   7.287   0.013  1.00  0.00     0.163 HD
ENDROOT
BRANCH   1   5
ATOM      5  C   UNL     1       3.762   9.397   0.021  1.00  0.00     0.130 C 
BRANCH   5   6
ATOM      6  C   UNL     1       5.213   8.913   0.005  1.00  0.00     0.081 C 
BRANCH   6   7
ATOM      7  C   UNL     1       6.139  10.095   0.128  1.00  0.00    -0.013 A 
ATOM      8  C   UNL     1       8.465  10.127   3.156  1.00  0.00     0.001 A 
ATOM      9  C   UNL     1       7.491   9.625   2.339  1.00  0.00     0.010 A 
ATOM     10  C   UNL     1       9.085  11.332   2.856  1.00  0.00     0.002 A 
ATOM     11  C   UNL     1       7.116  10.330   1.194  1.00  0.00     0.003 A 
ATOM     12  C   UNL     1       8.736  12.041   1.727  1.00  0.00     0.026 A 
ATOM     13  C   UNL     1       7.743  11.551   0.884  1.00  0.00     0.046 A 
ATOM     14  N   UNL     1       7.175  12.016  -0.281  1.00  0.00    -0.361 N 
ATOM     15  C   UNL     1       6.221  11.136  -0.716  1.00  0.00     0.088 A 
ATOM     16  H   UNL     1       7.429  12.895  -0.753  1.00  0.00     0.166 HD
ENDBRANCH   6   7
BRANCH   6  17
ATOM     17  C   UNL     1       5.488   8.192  -1.290  1.00  0.00     0.014 A 
ATOM     18  S   UNL     1       5.380   8.805  -2.963  1.00  0.00    -0.148 S 
ATOM     19  C   UNL     1       5.886   6.911  -1.486  1.00  0.00     0.016 A 
ATOM     20  C   UNL     1       5.867   7.311  -3.810  1.00  0.00     0.065 A 
ATOM     21  C   UNL     1       6.075   6.458  -2.778  1.00  0.00     0.012 A 
ENDBRANCH   6  17
ENDBRANCH   5   6
ENDBRANCH   1   5
BRANCH   2  22
ATOM     22  C   UNL     1       0.619   7.264   0.037  1.00  0.00     0.150 A 
ATOM     23  N   UNL     1       0.974   5.994   0.032  1.00  0.00    -0.163 NA
ATOM     24  C   UNL     1      -0.796   7.301   0.050  1.00  0.00     0.056 A 
ATOM     25  N   UNL     1      -0.069   5.243   0.031  1.00  0.00    -0.240 N 
ATOM     26  C   UNL     1      -1.193   6.007   0.046  1.00  0.00     0.116 A 
BRANCH  25  27
ATOM     27  C   UNL     1      -0.050   3.842   0.023  1.00  0.00     0.071 A 
ATOM     28  C   UNL     1       1.161   3.163   0.008  1.00  0.00     0.114 A 
ATOM     29  C   UNL     1      -1.242   3.130   0.031  1.00  0.00     0.029 A 
ATOM     30  C   UNL     1       1.176   1.782   0.000  1.00  0.00     0.271 A 
ATOM     31  C   UNL     1      -1.220   1.750   0.017  1.00  0.00     0.009 A 
ATOM     32  C   UNL     1      -0.013   1.076   0.008  1.00  0.00     0.086 A 
BRANCH  30  33
ATOM     33  N   UNL     1       2.467   1.057  -0.015  1.00  0.00     0.062 N 
ATOM     34  O   UNL     1       2.481  -0.161  -0.022  1.00  0.00    -0.258 OA
ATOM     35  O   UNL     1       3.514   1.678  -0.022  1.00  0.00    -0.258 OA
ENDBRANCH  30  33
ENDBRANCH  25  27
ENDBRANCH   2  22
TORSDOF 7
