REMARK SMILES NC(=O)c1c([N-]C(=S)NC(=O)CCCOc2ccc(Cl)cc2Cl)sc2c1CCCC2
REMARK SMILES IDX 10 1 11 2 9 3 12 5 13 6 14 7 15 8 16 9 18 10 19 11 17 12
REMARK SMILES IDX 21 13 20 14 22 15 23 16 7 17 8 18 6 19 5 20 24 21 4 22 25 23
REMARK SMILES IDX 26 24 30 25 27 26 29 27 28 28 2 29 3 30 1 31
REMARK H PARENT 9 4 1 32 1 33
REMARK Flexibility Score: inf
ROOT
ATOM      1  C   UNL     1       5.077  -2.953  -0.065  1.00  0.00     0.145 C 
ATOM      2  O   UNL     1       6.027  -2.200  -0.070  1.00  0.00    -0.299 OA
ATOM      3  N   UNL     1       5.273  -4.286  -0.074  1.00  0.00    -0.419 N 
ATOM      4  H   UNL     1       4.465  -4.926  -0.070  1.00  0.00     0.029 HD
ENDROOT
BRANCH   1   5
ATOM      5  C   UNL     1       3.676  -2.397  -0.048  1.00  0.00     0.079 C 
BRANCH   5   6
ATOM      6  C   UNL     1       3.734  -0.869  -0.040  1.00  0.00     0.049 C 
BRANCH   6   7
ATOM      7  C   UNL     1       2.312  -0.305  -0.023  1.00  0.00     0.230 C 
BRANCH   7   8
ATOM      8  O   UNL     1       2.366   1.123  -0.015  1.00  0.00    -0.492 OA
BRANCH   8   9
ATOM      9  C   UNL     1       1.179   1.786   0.000  1.00  0.00     0.137 A 
ATOM     10  C   UNL     1      -1.218   1.751   0.017  1.00  0.00     0.024 A 
ATOM     11  C   UNL     1      -1.238   3.134   0.030  1.00  0.00     0.042 A 
ATOM     12  C   UNL     1      -0.013   1.076   0.008  1.00  0.00     0.049 A 
ATOM     13  C   UNL     1      -0.051   3.845   0.023  1.00  0.00     0.045 A 
ATOM     14  Cl  UNL     1      -2.755   3.979   0.048  1.00  0.00    -0.084 Cl
ATOM     15  C   UNL     1       1.157   3.174   0.008  1.00  0.00     0.084 A 
ATOM     16  Cl  UNL     1       2.646   4.066  -0.002  1.00  0.00    -0.080 Cl
ENDBRANCH   8   9
ENDBRANCH   7   8
ENDBRANCH   6   7
ENDBRANCH   5   6
ENDBRANCH   1   5
BRANCH   3  17
ATOM     17  C   UNL     1       6.526  -4.783  -0.089  1.00  0.00     0.010 C 
ATOM     18  S   UNL     1       7.868  -3.720  -0.097  1.00  0.00    -0.090 S 
BRANCH  17  19
ATOM     19  N   UNL     1       6.722  -6.117  -0.099  1.00  0.00    -0.417 NA
BRANCH  19  20
ATOM     20  C   UNL     1       8.010  -6.627  -0.115  1.00  0.00     0.027 A 
ATOM     21  S   UNL     1       9.511  -5.762  -0.124  1.00  0.00    -0.144 S 
ATOM     22  C   UNL     1       8.411  -7.956  -0.120  1.00  0.00     0.057 A 
ATOM     23  C   UNL     1      10.631  -7.133  -0.142  1.00  0.00     0.009 A 
ATOM     24  C   UNL     1       9.838  -8.227  -0.141  1.00  0.00    -0.021 A 
ATOM     25  C   UNL     1      12.128  -7.103  -0.155  1.00  0.00     0.047 C 
ATOM     26  C   UNL     1      10.435  -9.629  -0.155  1.00  0.00     0.037 C 
ATOM     27  C   UNL     1      12.644  -8.503   0.211  1.00  0.00     0.006 C 
ATOM     28  C   UNL     1      11.888  -9.540  -0.625  1.00  0.00     0.005 C 
BRANCH  22  29
ATOM     29  C   UNL     1       7.431  -9.046  -0.111  1.00  0.00     0.250 C 
ATOM     30  O   UNL     1       7.012  -9.498  -1.161  1.00  0.00    -0.269 OA
ATOM     31  N   UNL     1       6.992  -9.548   1.061  1.00  0.00    -0.366 N 
ATOM     32  H   UNL     1       7.346  -9.166   1.950  1.00  0.00     0.159 HD
ATOM     33  H   UNL     1       6.304 -10.314   1.068  1.00  0.00     0.159 HD
ENDBRANCH  22  29
ENDBRANCH  19  20
ENDBRANCH  17  19
ENDBRANCH   3  17
TORSDOF 9
