REMARK SMILES O=C(COC(=O)c1cc2nc(Nc3ccccc3)sc2s1)Nc1ccnn1Cc1cccs1
REMARK SMILES IDX 3 1 4 2 5 3 6 4 7 5 11 6 19 7 10 8 20 9 9 10 21 11 8 12
REMARK SMILES IDX 12 13 13 15 16 16 17 17 15 18 18 19 14 20 2 21 1 22 22 23
REMARK SMILES IDX 23 25 27 26 24 27 26 28 25 29 28 30 29 31 33 32 30 33 32 34
REMARK SMILES IDX 31 35
REMARK H PARENT 12 14 22 24
REMARK Flexibility Score: inf
ROOT
ATOM      1  C   UNL     1     -11.880   3.570   0.903  1.00  0.00     0.333 C 
ENDROOT
BRANCH   1   2
ATOM      2  O   UNL     1     -10.468   3.741   0.773  1.00  0.00    -0.451 OA
BRANCH   2   3
ATOM      3  C   UNL     1      -9.719   2.622   0.699  1.00  0.00     0.348 C 
ATOM      4  O   UNL     1     -10.252   1.529   0.745  1.00  0.00    -0.245 OA
BRANCH   3   5
ATOM      5  C   UNL     1      -8.267   2.721   0.565  1.00  0.00     0.116 A 
ATOM      6  C   UNL     1      -3.631   1.716   0.133  1.00  0.00     0.189 A 
ATOM      7  S   UNL     1      -3.935   3.477   0.168  1.00  0.00    -0.086 S 
ATOM      8  N   UNL     1      -4.839   1.228   0.237  1.00  0.00    -0.219 NA
ATOM      9  C   UNL     1      -5.687   3.391   0.330  1.00  0.00     0.110 A 
ATOM     10  C   UNL     1      -5.963   2.011   0.350  1.00  0.00     0.095 A 
ATOM     11  S   UNL     1      -7.248   4.186   0.477  1.00  0.00    -0.115 S 
ATOM     12  C   UNL     1      -7.338   1.711   0.475  1.00  0.00     0.057 A 
BRANCH   6  13
ATOM     13  N   UNL     1      -2.427   1.042   0.019  1.00  0.00    -0.332 N 
ATOM     14  H   UNL     1      -2.418   0.017  -0.085  1.00  0.00     0.169 HD
BRANCH  13  15
ATOM     15  C   UNL     1      -1.223   1.752   0.046  1.00  0.00     0.040 A 
ATOM     16  C   UNL     1       1.157   3.162   0.093  1.00  0.00     0.000 A 
ATOM     17  C   UNL     1       0.081   3.599   0.844  1.00  0.00     0.002 A 
ATOM     18  C   UNL     1       1.047   2.020  -0.678  1.00  0.00     0.002 A 
ATOM     19  C   UNL     1      -1.107   2.897   0.825  1.00  0.00     0.026 A 
ATOM     20  C   UNL     1      -0.139   1.312  -0.703  1.00  0.00     0.026 A 
ENDBRANCH  13  15
ENDBRANCH   6  13
ENDBRANCH   3   5
ENDBRANCH   2   3
ENDBRANCH   1   2
BRANCH   1  21
ATOM     21  C   UNL     1     -12.547   4.920   0.970  1.00  0.00     0.263 C 
ATOM     22  O   UNL     1     -11.878   5.930   0.912  1.00  0.00    -0.271 OA
ATOM     23  N   UNL     1     -13.886   5.005   1.094  1.00  0.00    -0.308 N 
ATOM     24  H   UNL     1     -14.454   4.147   1.144  1.00  0.00     0.171 HD
BRANCH  23  25
ATOM     25  C   UNL     1     -14.503   6.254   1.156  1.00  0.00     0.131 A 
ATOM     26  N   UNL     1     -15.830   6.485   1.274  1.00  0.00    -0.244 N 
ATOM     27  C   UNL     1     -13.879   7.462   1.102  1.00  0.00     0.069 A 
ATOM     28  N   UNL     1     -16.025   7.872   1.302  1.00  0.00    -0.179 NA
ATOM     29  C   UNL     1     -14.858   8.455   1.196  1.00  0.00     0.137 A 
BRANCH  26  30
ATOM     30  C   UNL     1     -16.878   5.465   1.361  1.00  0.00     0.193 C 
BRANCH  30  31
ATOM     31  C   UNL     1     -17.113   5.108   2.807  1.00  0.00     0.026 A 
ATOM     32  S   UNL     1     -16.332   3.841   3.792  1.00  0.00    -0.147 S 
ATOM     33  C   UNL     1     -17.976   5.662   3.693  1.00  0.00     0.017 A 
ATOM     34  C   UNL     1     -17.202   4.141   5.322  1.00  0.00     0.065 A 
ATOM     35  C   UNL     1     -18.021   5.166   4.983  1.00  0.00     0.012 A 
ENDBRANCH  30  31
ENDBRANCH  26  30
ENDBRANCH  23  25
ENDBRANCH   1  21
TORSDOF 9
