REMARK SMILES Cc1ccc([C@H]2/C(=C(\O)c3ccc(OCc4cccc(C)c4)cc3)C(=O)C(=O)N2CCCn2ccnc2)cc1
REMARK SMILES IDX 6 1 7 2 8 3 25 4 26 5 27 6 28 7 29 8 5 9 1 10 2 11 39 12
REMARK SMILES IDX 3 13 38 14 4 15 30 16 31 17 32 18 33 19 37 20 34 21 36 22
REMARK SMILES IDX 35 23 10 24 24 25 11 26 23 27 12 28 13 29 14 30 15 31 16 32
REMARK SMILES IDX 22 33 17 34 20 35 18 36 19 37 21 38 9 39
REMARK H PARENT 9 40
REMARK Flexibility Score: inf
ROOT
ATOM      1  C   UNL     1      -0.421  13.722  -0.940  1.00  0.00     0.154 C 
ATOM      2  C   UNL     1      -0.279  12.218  -0.925  1.00  0.00     0.075 C 
ATOM      3  C   UNL     1      -0.174  11.384  -2.022  1.00  0.00     0.132 C 
ATOM      4  C   UNL     1      -0.281  11.839   0.425  1.00  0.00     0.252 C 
ATOM      5  O   UNL     1      -0.190  10.700   0.847  1.00  0.00    -0.283 OA
ATOM      6  C   UNL     1      -0.411  13.068   1.252  1.00  0.00     0.295 C 
ATOM      7  O   UNL     1      -0.442  13.091   2.466  1.00  0.00    -0.265 OA
ATOM      8  N   UNL     1      -0.495  14.150   0.460  1.00  0.00    -0.324 N 
ENDROOT
BRANCH   1   9
ATOM      9  C   UNL     1       0.776  14.348  -1.608  1.00  0.00    -0.021 A 
ATOM     10  C   UNL     1       4.169  16.121  -3.503  1.00  0.00     0.044 C 
ATOM     11  C   UNL     1       2.972  15.496  -2.834  1.00  0.00    -0.051 A 
ATOM     12  C   UNL     1       3.062  15.055  -1.527  1.00  0.00     0.004 A 
ATOM     13  C   UNL     1       1.784  15.362  -3.529  1.00  0.00     0.004 A 
ATOM     14  C   UNL     1       1.962  14.486  -0.913  1.00  0.00     0.006 A 
ATOM     15  C   UNL     1       0.686  14.789  -2.915  1.00  0.00     0.006 A 
ENDBRANCH   1   9
BRANCH   8  16
ATOM     16  C   UNL     1      -0.637  15.534   0.921  1.00  0.00     0.123 C 
BRANCH  16  17
ATOM     17  C   UNL     1      -2.122  15.880   1.047  1.00  0.00     0.043 C 
BRANCH  17  18
ATOM     18  C   UNL     1      -2.270  17.324   1.528  1.00  0.00     0.125 C 
BRANCH  18  19
ATOM     19  N   UNL     1      -3.692  17.655   1.649  1.00  0.00    -0.337 N 
ATOM     20  C   UNL     1      -4.477  18.185   0.685  1.00  0.00     0.199 A 
ATOM     21  C   UNL     1      -4.473  17.491   2.761  1.00  0.00     0.107 A 
ATOM     22  N   UNL     1      -5.682  18.335   1.163  1.00  0.00    -0.245 NA
ATOM     23  C   UNL     1      -5.708  17.921   2.438  1.00  0.00     0.130 A 
ENDBRANCH  18  19
ENDBRANCH  17  18
ENDBRANCH  16  17
ENDBRANCH   8  16
BRANCH   3  24
ATOM     24  C   UNL     1       0.118   9.954  -1.833  1.00  0.00     0.017 A 
ATOM     25  C   UNL     1       1.192   9.557  -1.027  1.00  0.00     0.016 A 
ATOM     26  C   UNL     1      -0.677   8.986  -2.458  1.00  0.00     0.016 A 
ATOM     27  C   UNL     1       1.457   8.219  -0.848  1.00  0.00     0.047 A 
ATOM     28  C   UNL     1      -0.400   7.651  -2.278  1.00  0.00     0.047 A 
ATOM     29  C   UNL     1       0.668   7.261  -1.476  1.00  0.00     0.119 A 
BRANCH  29  30
ATOM     30  O   UNL     1       0.937   5.943  -1.301  1.00  0.00    -0.489 OA
BRANCH  30  31
ATOM     31  C   UNL     1       2.048   5.613  -0.465  1.00  0.00     0.265 C 
BRANCH  31  32
ATOM     32  C   UNL     1       2.191   4.115  -0.389  1.00  0.00    -0.011 A 
ATOM     33  C   UNL     1       1.533   3.406   0.598  1.00  0.00     0.010 A 
ATOM     34  C   UNL     1       2.981   3.448  -1.308  1.00  0.00     0.007 A 
ATOM     35  C   UNL     1       1.661   2.031   0.665  1.00  0.00    -0.051 A 
ATOM     36  C   UNL     1       3.112   2.074  -1.239  1.00  0.00     0.001 A 
ATOM     37  C   UNL     1       2.454   1.366  -0.251  1.00  0.00     0.003 A 
ATOM     38  C   UNL     1       0.938   1.258   1.738  1.00  0.00     0.044 C 
ENDBRANCH  31  32
ENDBRANCH  30  31
ENDBRANCH  29  30
ENDBRANCH   3  24
BRANCH   3  39
ATOM     39  O   UNL     1      -0.339  11.880  -3.266  1.00  0.00    -0.507 OA
ATOM     40  H   UNL     1       0.326  12.610  -3.340  1.00  0.00     0.293 HD
ENDBRANCH   3  39
TORSDOF 10
