REMARK SMILES Nn1c(NN=C(Cc2ccccc2)Cc2ccccc2)nnc1SCC(=O)[C@H]1[C@@H]2C[C@H]3C[C@@H](C2)C[C@@H]1C3
REMARK SMILES IDX 3 1 21 2 22 3 23 4 2 5 4 6 5 8 6 9 7 10 8 11 11 12 12 13
REMARK SMILES IDX 10 14 13 15 9 16 14 17 15 18 20 19 16 20 19 21 17 22 18 23
REMARK SMILES IDX 1 24 24 27 25 28 26 29 27 30 28 31 36 32 29 33 35 34 37 35
REMARK SMILES IDX 34 36 30 37 33 38 31 39 32 40
REMARK H PARENT 4 7 1 25 1 26
REMARK Flexibility Score: inf
ROOT
ATOM      1  C   UNL     1      -3.555  -4.827   2.114  1.00  0.00     0.264 A 
ATOM      2  N   UNL     1      -4.041  -3.643   2.396  1.00  0.00    -0.107 NA
ATOM      3  N   UNL     1      -3.165  -2.681   1.877  1.00  0.00    -0.119 NA
ATOM      4  C   UNL     1      -2.172  -3.309   1.293  1.00  0.00     0.211 A 
ATOM      5  N   UNL     1      -2.391  -4.652   1.419  1.00  0.00    -0.202 N 
ENDROOT
BRANCH   1   6
ATOM      6  N   UNL     1      -4.127  -6.046   2.454  1.00  0.00    -0.244 N 
ATOM      7  H   UNL     1      -3.664  -6.925   2.184  1.00  0.00     0.193 HD
BRANCH   6   8
ATOM      8  N   UNL     1      -5.334  -6.079   3.166  1.00  0.00    -0.181 NA
ATOM      9  C   UNL     1      -5.861  -7.203   3.480  1.00  0.00     0.047 C 
BRANCH   9  10
ATOM     10  C   UNL     1      -5.183  -8.489   3.085  1.00  0.00     0.089 C 
BRANCH  10  11
ATOM     11  C   UNL     1      -4.236  -8.915   4.177  1.00  0.00    -0.042 A 
ATOM     12  C   UNL     1      -2.498  -9.694   6.181  1.00  0.00     0.000 A 
ATOM     13  C   UNL     1      -2.053  -8.877   5.159  1.00  0.00     0.000 A 
ATOM     14  C   UNL     1      -3.812 -10.123   6.200  1.00  0.00     0.000 A 
ATOM     15  C   UNL     1      -2.920  -8.491   4.154  1.00  0.00     0.004 A 
ATOM     16  C   UNL     1      -4.681  -9.732   5.199  1.00  0.00     0.004 A 
ENDBRANCH  10  11
ENDBRANCH   9  10
BRANCH   9  17
ATOM     17  C   UNL     1      -7.159  -7.239   4.245  1.00  0.00     0.089 C 
BRANCH  17  18
ATOM     18  C   UNL     1      -8.232  -7.854   3.385  1.00  0.00    -0.042 A 
ATOM     19  C   UNL     1      -8.443  -9.220   3.416  1.00  0.00     0.004 A 
ATOM     20  C   UNL     1      -9.008  -7.053   2.569  1.00  0.00     0.004 A 
ATOM     21  C   UNL     1      -9.428  -9.785   2.627  1.00  0.00     0.000 A 
ATOM     22  C   UNL     1      -9.990  -7.618   1.776  1.00  0.00     0.000 A 
ATOM     23  C   UNL     1     -10.201  -8.984   1.807  1.00  0.00     0.000 A 
ENDBRANCH  17  18
ENDBRANCH   9  17
ENDBRANCH   6   8
ENDBRANCH   1   6
BRANCH   5  24
ATOM     24  N   UNL     1      -1.585  -5.645   0.939  1.00  0.00    -0.334 N 
ATOM     25  H   UNL     1      -1.901  -6.607   1.127  1.00  0.00     0.178 HD
ATOM     26  H   UNL     1      -0.715  -5.461   0.420  1.00  0.00     0.178 HD
ENDBRANCH   5  24
BRANCH   4  27
ATOM     27  S   UNL     1      -0.802  -2.555   0.483  1.00  0.00    -0.076 SA
BRANCH  27  28
ATOM     28  C   UNL     1      -1.112  -0.776   0.661  1.00  0.00     0.154 C 
BRANCH  28  29
ATOM     29  C   UNL     1       0.002  -0.004   0.002  1.00  0.00     0.146 C 
ATOM     30  O   UNL     1       0.911  -0.593  -0.533  1.00  0.00    -0.298 OA
BRANCH  29  31
ATOM     31  C   UNL     1      -0.018   1.503   0.010  1.00  0.00     0.063 C 
ATOM     32  C   UNL     1       1.358   2.034  -0.396  1.00  0.00     0.000 C 
ATOM     33  C   UNL     1      -1.071   2.004  -0.980  1.00  0.00     0.000 C 
ATOM     34  C   UNL     1       1.702   1.536  -1.801  1.00  0.00     0.008 C 
ATOM     35  C   UNL     1       1.337   3.564  -0.387  1.00  0.00     0.008 C 
ATOM     36  C   UNL     1      -0.727   1.506  -2.386  1.00  0.00     0.008 C 
ATOM     37  C   UNL     1      -1.092   3.534  -0.972  1.00  0.00     0.008 C 
ATOM     38  C   UNL     1       0.649   2.037  -2.792  1.00  0.00    -0.010 C 
ATOM     39  C   UNL     1       0.284   4.065  -1.378  1.00  0.00    -0.010 C 
ATOM     40  C   UNL     1       0.629   3.567  -2.783  1.00  0.00     0.007 C 
ENDBRANCH  29  31
ENDBRANCH  28  29
ENDBRANCH  27  28
ENDBRANCH   4  27
TORSDOF 11
