REMARK SMILES CC(C)CNC(=O)c1ccccc1NC(=O)[C@H]1CCCN(Cc2nc(-c3cccs3)no2)C1
REMARK SMILES IDX 14 1 15 2 16 3 13 5 8 6 9 7 12 8 10 9 11 10 6 11 5 12 7 14
REMARK SMILES IDX 4 15 2 16 1 17 3 18 17 19 33 20 18 21 21 22 19 23 20 24
REMARK SMILES IDX 22 25 23 26 32 27 24 28 31 29 25 30 26 31 30 32 27 33 29 34
REMARK SMILES IDX 28 35
REMARK H PARENT 14 4 5 13
REMARK Flexibility Score: inf
ROOT
ATOM      1  N   UNL     1       0.717   0.804  -5.138  1.00  0.00    -0.325 N 
ATOM      2  C   UNL     1       1.228   0.688  -6.380  1.00  0.00     0.228 C 
ATOM      3  O   UNL     1       0.706   1.269  -7.308  1.00  0.00    -0.274 OA
ATOM      4  H   UNL     1       1.206   0.378  -4.338  1.00  0.00     0.169 HD
ENDROOT
BRANCH   1   5
ATOM      5  C   UNL     1      -0.472   1.501  -4.938  1.00  0.00     0.054 A 
ATOM      6  C   UNL     1      -0.660   2.253  -3.768  1.00  0.00     0.063 A 
ATOM      7  C   UNL     1      -1.859   2.943  -3.576  1.00  0.00     0.016 A 
ATOM      8  C   UNL     1      -1.478   1.455  -5.894  1.00  0.00     0.027 A 
ATOM      9  C   UNL     1      -2.844   2.890  -4.539  1.00  0.00     0.001 A 
ATOM     10  C   UNL     1      -2.656   2.146  -5.692  1.00  0.00     0.002 A 
BRANCH   6  11
ATOM     11  C   UNL     1       0.401   2.309  -2.744  1.00  0.00     0.253 C 
ATOM     12  N   UNL     1       0.259   3.111  -1.670  1.00  0.00    -0.352 N 
ATOM     13  H   UNL     1      -0.591   3.684  -1.564  1.00  0.00     0.163 HD
ATOM     14  O   UNL     1       1.403   1.632  -2.869  1.00  0.00    -0.269 OA
BRANCH  12  15
ATOM     15  C   UNL     1       1.312   3.167  -0.653  1.00  0.00     0.119 C 
BRANCH  15  16
ATOM     16  C   UNL     1       0.904   4.145   0.450  1.00  0.00     0.002 C 
ATOM     17  C   UNL     1       1.944   4.111   1.572  1.00  0.00     0.009 C 
ATOM     18  C   UNL     1       0.823   5.560  -0.127  1.00  0.00     0.009 C 
ENDBRANCH  15  16
ENDBRANCH  12  15
ENDBRANCH   6  11
ENDBRANCH   1   5
BRANCH   2  19
ATOM     19  C   UNL     1       2.449  -0.165  -6.616  1.00  0.00     0.093 C 
ATOM     20  C   UNL     1       2.820  -0.126  -8.100  1.00  0.00     0.098 C 
ATOM     21  C   UNL     1       2.150  -1.609  -6.207  1.00  0.00     0.016 C 
ATOM     22  N   UNL     1       3.996  -0.973  -8.334  1.00  0.00    -0.294 NA
ATOM     23  C   UNL     1       3.374  -2.480  -6.505  1.00  0.00     0.016 C 
ATOM     24  C   UNL     1       3.718  -2.374  -7.992  1.00  0.00     0.085 C 
BRANCH  22  25
ATOM     25  C   UNL     1       4.465  -0.852  -9.721  1.00  0.00     0.185 C 
BRANCH  25  26
ATOM     26  C   UNL     1       5.507  -1.906  -9.992  1.00  0.00     0.241 A 
ATOM     27  O   UNL     1       6.826  -1.782  -9.815  1.00  0.00    -0.338 OA
ATOM     28  N   UNL     1       5.289  -3.117 -10.441  1.00  0.00    -0.189 NA
ATOM     29  N   UNL     1       7.387  -2.811 -10.126  1.00  0.00    -0.056 NA
ATOM     30  C   UNL     1       6.510  -3.697 -10.530  1.00  0.00     0.212 A 
BRANCH  30  31
ATOM     31  C   UNL     1       6.797  -5.070 -10.991  1.00  0.00     0.075 A 
ATOM     32  S   UNL     1       5.662  -6.332 -11.546  1.00  0.00    -0.140 S 
ATOM     33  C   UNL     1       8.004  -5.710 -11.099  1.00  0.00     0.024 A 
ATOM     34  C   UNL     1       6.857  -7.612 -11.892  1.00  0.00     0.065 A 
ATOM     35  C   UNL     1       8.027  -7.007 -11.559  1.00  0.00     0.012 A 
ENDBRANCH  30  31
ENDBRANCH  25  26
ENDBRANCH  22  25
ENDBRANCH   2  19
TORSDOF 8
