REMARK SMILES O=C(CSc1n[nH]c(N/N=C/c2ccc3ccc4cccc5ccc2c3c45)n1)N1CCc2ccccc2C1
REMARK SMILES IDX 5 1 28 2 8 3 7 4 6 5 4 7 3 8 2 9 1 10 29 11 34 12 33 13
REMARK SMILES IDX 35 14 32 15 36 16 37 17 31 18 38 19 30 20 9 21 10 23 11 24
REMARK SMILES IDX 12 25 25 26 13 27 26 28 24 29 14 30 15 31 27 32 23 33 16 34
REMARK SMILES IDX 18 35 22 36 17 37 19 38 21 39 20 40
REMARK H PARENT 7 6 9 22
REMARK Flexibility Score: inf
ROOT
ATOM      1  C   UNL     1       9.374   0.522  -0.410  1.00  0.00     0.210 A 
ATOM      2  N   UNL     1       8.473  -0.498  -0.290  1.00  0.00    -0.184 NA
ATOM      3  C   UNL     1       7.220   0.046  -0.264  1.00  0.00     0.240 A 
ATOM      4  N   UNL     1       7.340   1.347  -0.369  1.00  0.00    -0.243 N 
ATOM      5  N   UNL     1       8.705   1.649  -0.455  1.00  0.00    -0.145 NA
ATOM      6  H   UNL     1       6.567   2.027  -0.385  1.00  0.00     0.194 HD
ENDROOT
BRANCH   1   7
ATOM      7  S   UNL     1      11.126   0.353  -0.489  1.00  0.00    -0.074 SA
BRANCH   7   8
ATOM      8  C   UNL     1      11.725   2.059  -0.641  1.00  0.00     0.178 C 
BRANCH   8   9
ATOM      9  C   UNL     1      13.230   2.058  -0.720  1.00  0.00     0.233 C 
ATOM     10  O   UNL     1      13.838   1.010  -0.678  1.00  0.00    -0.274 OA
BRANCH   9  11
ATOM     11  N   UNL     1      13.899   3.221  -0.838  1.00  0.00    -0.337 N 
ATOM     12  C   UNL     1      14.789   7.037  -3.947  1.00  0.00     0.000 A 
ATOM     13  C   UNL     1      15.466   5.887  -3.598  1.00  0.00     0.004 A 
ATOM     14  C   UNL     1      13.601   7.355  -3.315  1.00  0.00     0.000 A 
ATOM     15  C   UNL     1      14.964   5.043  -2.613  1.00  0.00    -0.041 A 
ATOM     16  C   UNL     1      13.103   6.521  -2.336  1.00  0.00     0.006 A 
ATOM     17  C   UNL     1      13.786   5.366  -1.980  1.00  0.00    -0.025 A 
ATOM     18  C   UNL     1      15.753   3.801  -2.291  1.00  0.00     0.057 C 
ATOM     19  C   UNL     1      13.193   4.506  -0.897  1.00  0.00     0.155 C 
ATOM     20  C   UNL     1      15.369   3.255  -0.917  1.00  0.00     0.124 C 
ENDBRANCH   9  11
ENDBRANCH   8   9
ENDBRANCH   7   8
ENDBRANCH   1   7
BRANCH   3  21
ATOM     21  N   UNL     1       6.027  -0.657  -0.152  1.00  0.00    -0.246 N 
ATOM     22  H   UNL     1       6.040  -1.685  -0.080  1.00  0.00     0.193 HD
BRANCH  21  23
ATOM     23  N   UNL     1       4.807   0.031  -0.138  1.00  0.00    -0.181 NA
ATOM     24  C   UNL     1       3.708  -0.617  -0.035  1.00  0.00     0.142 C 
BRANCH  24  25
ATOM     25  C   UNL     1       2.425   0.107  -0.020  1.00  0.00     0.002 A 
ATOM     26  C   UNL     1       2.410   1.422   0.002  1.00  0.00    -0.008 A 
ATOM     27  C   UNL     1       1.155  -0.641  -0.029  1.00  0.00     0.011 A 
ATOM     28  C   UNL     1       1.116   2.128   0.017  1.00  0.00    -0.002 A 
ATOM     29  C   UNL     1       3.657   2.201   0.011  1.00  0.00     0.010 A 
ATOM     30  C   UNL     1       0.002  -0.004  -0.014  1.00  0.00     0.009 A 
ATOM     31  C   UNL     1      -0.018   1.468   0.010  1.00  0.00    -0.017 A 
ATOM     32  C   UNL     1       1.120   3.600   0.041  1.00  0.00    -0.003 A 
ATOM     33  C   UNL     1       3.660   3.513   0.032  1.00  0.00     0.009 A 
ATOM     34  C   UNL     1      -1.290   2.210   0.020  1.00  0.00     0.009 A 
ATOM     35  C   UNL     1      -0.011   4.264   0.056  1.00  0.00    -0.017 A 
ATOM     36  C   UNL     1       2.418   4.299   0.048  1.00  0.00    -0.017 A 
ATOM     37  C   UNL     1      -1.287   3.529   0.050  1.00  0.00     0.009 A 
ATOM     38  C   UNL     1       0.016   5.737   0.079  1.00  0.00     0.009 A 
ATOM     39  C   UNL     1       2.439   5.614   0.069  1.00  0.00     0.009 A 
ATOM     40  C   UNL     1       1.173   6.368   0.086  1.00  0.00     0.001 A 
ENDBRANCH  24  25
ENDBRANCH  21  23
ENDBRANCH   3  21
TORSDOF 7
