REMARK SMILES CCO[C@]1(C)O[C@H]2O[C@@H](COC(c3ccccc3)(c3ccccc3)c3ccccc3)[C@@H](O)[C@@H](O)[C@H]2O1
REMARK SMILES IDX 10 1 9 2 4 3 6 4 36 5 5 6 7 7 35 8 8 9 33 10 31 11 3 12 2 13
REMARK SMILES IDX 1 14 34 15 32 17 11 19 12 20 13 21 18 22 14 23 17 24 15 25
REMARK SMILES IDX 16 26 19 27 24 28 20 29 23 30 21 31 22 32 25 33 30 34 26 35
REMARK SMILES IDX 29 36 27 37 28 38
REMARK H PARENT 34 16 32 18
REMARK Flexibility Score: inf
ROOT
ATOM      1  C   UNL     1       3.205   2.462   0.575  1.00  0.00     0.197 C 
ENDROOT
BRANCH   1   2
ATOM      2  C   UNL     1       1.722   2.659   0.257  1.00  0.00     0.178 C 
ATOM      3  C   UNL     1       0.136   5.602  -2.169  1.00  0.00     0.282 C 
ATOM      4  O   UNL     1       0.318   4.258  -2.666  1.00  0.00    -0.295 OA
ATOM      5  O   UNL     1      -0.064   5.550  -0.743  1.00  0.00    -0.316 OA
ATOM      6  C   UNL     1       1.387   6.425  -2.483  1.00  0.00     0.112 C 
ATOM      7  C   UNL     1       0.239   3.380  -1.512  1.00  0.00     0.288 C 
ATOM      8  C   UNL     1      -0.570   4.224  -0.508  1.00  0.00     0.212 C 
ATOM      9  O   UNL     1       1.580   3.196  -1.055  1.00  0.00    -0.341 OA
ATOM     10  C   UNL     1      -0.379   3.796   0.919  1.00  0.00     0.180 C 
ATOM     11  C   UNL     1       1.107   3.648   1.255  1.00  0.00     0.177 C 
BRANCH   3  12
ATOM     12  O   UNL     1      -1.000   6.205  -2.791  1.00  0.00    -0.328 OA
BRANCH  12  13
ATOM     13  C   UNL     1      -2.236   5.546  -2.507  1.00  0.00     0.163 C 
ATOM     14  C   UNL     1      -3.355   6.180  -3.336  1.00  0.00     0.035 C 
ENDBRANCH  12  13
ENDBRANCH   3  12
BRANCH  10  15
ATOM     15  O   UNL     1      -0.963   4.766   1.789  1.00  0.00    -0.387 OA
ATOM     16  H   UNL     1      -1.931   4.845   1.596  1.00  0.00     0.211 HD
ENDBRANCH  10  15
BRANCH  11  17
ATOM     17  O   UNL     1       1.757   4.915   1.142  1.00  0.00    -0.387 OA
ATOM     18  H   UNL     1       1.339   5.556   1.770  1.00  0.00     0.211 HD
ENDBRANCH  11  17
ENDBRANCH   1   2
BRANCH   1  19
ATOM     19  O   UNL     1       3.752   1.471  -0.298  1.00  0.00    -0.358 OA
BRANCH  19  20
ATOM     20  C   UNL     1       5.165   1.299  -0.169  1.00  0.00     0.143 C 
BRANCH  20  21
ATOM     21  C   UNL     1       5.495   0.895   1.244  1.00  0.00    -0.007 A 
ATOM     22  C   UNL     1       5.553   1.851   2.241  1.00  0.00     0.007 A 
ATOM     23  C   UNL     1       5.734  -0.433   1.546  1.00  0.00     0.007 A 
ATOM     24  C   UNL     1       5.855   1.480   3.538  1.00  0.00     0.000 A 
ATOM     25  C   UNL     1       6.042  -0.803   2.842  1.00  0.00     0.000 A 
ATOM     26  C   UNL     1       6.100   0.153   3.838  1.00  0.00     0.000 A 
ENDBRANCH  20  21
BRANCH  20  27
ATOM     27  C   UNL     1       5.629   0.226  -1.120  1.00  0.00    -0.007 A 
ATOM     28  C   UNL     1       4.705  -0.489  -1.859  1.00  0.00     0.007 A 
ATOM     29  C   UNL     1       6.979  -0.040  -1.256  1.00  0.00     0.007 A 
ATOM     30  C   UNL     1       5.131  -1.473  -2.732  1.00  0.00     0.000 A 
ATOM     31  C   UNL     1       7.404  -1.028  -2.125  1.00  0.00     0.000 A 
ATOM     32  C   UNL     1       6.481  -1.742  -2.865  1.00  0.00     0.000 A 
ENDBRANCH  20  27
BRANCH  20  33
ATOM     33  C   UNL     1       5.861   2.595  -0.496  1.00  0.00    -0.007 A 
ATOM     34  C   UNL     1       5.295   3.475  -1.401  1.00  0.00     0.007 A 
ATOM     35  C   UNL     1       7.062   2.907   0.111  1.00  0.00     0.007 A 
ATOM     36  C   UNL     1       5.933   4.664  -1.700  1.00  0.00     0.000 A 
ATOM     37  C   UNL     1       7.703   4.094  -0.192  1.00  0.00     0.000 A 
ATOM     38  C   UNL     1       7.137   4.973  -1.096  1.00  0.00     0.000 A 
ENDBRANCH  20  33
ENDBRANCH  19  20
ENDBRANCH   1  19
TORSDOF 10
