REMARK SMILES NC(=O)[C@H](Sc1nc2sc3c(c2c(=O)n1CCc1ccccc1)CCC3)c1ccccc1
REMARK SMILES IDX 15 1 13 2 14 3 12 4 11 5 10 6 9 7 8 8 7 9 6 10 26 11 25 12
REMARK SMILES IDX 24 13 16 14 17 15 18 16 21 17 22 18 20 19 23 20 19 21 5 22
REMARK SMILES IDX 4 23 27 24 32 25 28 26 31 27 29 28 30 29 2 30 3 31 1 32
REMARK H PARENT 1 33 1 34
REMARK Flexibility Score: inf
ROOT
ATOM      1  N   UNL     1      -1.961   1.784   0.547  1.00  0.00    -0.287 N 
ATOM      2  C   UNL     1      -0.951   0.893   0.529  1.00  0.00     0.263 A 
ATOM      3  O   UNL     1      -1.169  -0.292   0.712  1.00  0.00    -0.268 OA
ATOM      4  C   UNL     1       0.379   1.359   0.288  1.00  0.00     0.080 A 
ATOM      5  C   UNL     1       1.618   0.566   0.222  1.00  0.00    -0.019 A 
ATOM      6  C   UNL     1       2.755   1.236  -0.022  1.00  0.00     0.011 A 
ATOM      7  S   UNL     1       2.264   2.938  -0.174  1.00  0.00    -0.120 S 
ATOM      8  C   UNL     1       0.522   2.740   0.090  1.00  0.00     0.132 A 
ATOM      9  N   UNL     1      -0.516   3.569   0.124  1.00  0.00    -0.213 NA
ATOM     10  C   UNL     1      -1.733   3.115   0.348  1.00  0.00     0.173 A 
ATOM     11  C   UNL     1       3.953   0.325  -0.070  1.00  0.00     0.047 C 
ATOM     12  C   UNL     1       3.357  -1.089  -0.248  1.00  0.00     0.010 C 
ATOM     13  C   UNL     1       1.958  -0.919   0.376  1.00  0.00     0.038 C 
ENDROOT
BRANCH   1  14
ATOM     14  C   UNL     1      -3.328   1.317   0.787  1.00  0.00     0.133 C 
BRANCH  14  15
ATOM     15  C   UNL     1      -3.617   1.338   2.289  1.00  0.00     0.057 C 
BRANCH  15  16
ATOM     16  C   UNL     1      -5.024   0.857   2.537  1.00  0.00    -0.046 A 
ATOM     17  C   UNL     1      -7.604  -0.024   2.991  1.00  0.00     0.000 A 
ATOM     18  C   UNL     1      -7.360   1.320   2.785  1.00  0.00     0.000 A 
ATOM     19  C   UNL     1      -6.559  -0.928   2.971  1.00  0.00     0.000 A 
ATOM     20  C   UNL     1      -6.069   1.762   2.563  1.00  0.00     0.004 A 
ATOM     21  C   UNL     1      -5.269  -0.487   2.744  1.00  0.00     0.004 A 
ENDBRANCH  15  16
ENDBRANCH  14  15
ENDBRANCH   1  14
BRANCH  10  22
ATOM     22  S   UNL     1      -3.086   4.243   0.386  1.00  0.00    -0.069 SA
BRANCH  22  23
ATOM     23  C   UNL     1      -2.212   5.795   0.067  1.00  0.00     0.173 C 
BRANCH  23  24
ATOM     24  C   UNL     1      -3.177   6.947   0.176  1.00  0.00    -0.025 A 
ATOM     25  C   UNL     1      -4.393   6.893  -0.478  1.00  0.00     0.005 A 
ATOM     26  C   UNL     1      -2.848   8.055   0.934  1.00  0.00     0.005 A 
ATOM     27  C   UNL     1      -5.279   7.950  -0.379  1.00  0.00     0.000 A 
ATOM     28  C   UNL     1      -3.732   9.114   1.030  1.00  0.00     0.000 A 
ATOM     29  C   UNL     1      -4.948   9.060   0.376  1.00  0.00     0.000 A 
ENDBRANCH  23  24
BRANCH  23  30
ATOM     30  C   UNL     1      -1.621   5.763  -1.319  1.00  0.00     0.235 C 
ATOM     31  O   UNL     1      -0.418   5.813  -1.467  1.00  0.00    -0.274 OA
ATOM     32  N   UNL     1      -2.430   5.679  -2.394  1.00  0.00    -0.368 N 
ATOM     33  H   UNL     1      -3.451   5.637  -2.268  1.00  0.00     0.159 HD
ATOM     34  H   UNL     1      -2.026   5.657  -3.341  1.00  0.00     0.159 HD
ENDBRANCH  23  30
ENDBRANCH  22  23
ENDBRANCH  10  22
TORSDOF 7
