REMARK SMILES O=C(NCCOCCO)c1cn(C[C@@H]2CCCC[N@H+]2CCc2ccc3c(c2)OCO3)c2ccccc12
REMARK SMILES IDX 2 1 1 2 3 3 10 5 34 6 35 7 33 8 36 9 32 10 31 11 12 12 11 13
REMARK SMILES IDX 13 14 14 15 15 16 19 17 16 18 18 19 17 21 20 22 21 23 22 24
REMARK SMILES IDX 27 25 23 26 26 27 24 28 25 29 28 30 30 31 29 32 4 33 5 34
REMARK SMILES IDX 6 35 7 36 8 37 9 38
REMARK H PARENT 3 4 19 20 9 39
REMARK Flexibility Score: inf
ROOT
ATOM      1  C   UNL     1      -4.003   7.837  -1.391  1.00  0.00     0.253 C 
ATOM      2  O   UNL     1      -3.897   8.993  -1.756  1.00  0.00    -0.269 OA
ATOM      3  N   UNL     1      -5.051   7.465  -0.628  1.00  0.00    -0.350 N 
ATOM      4  H   UNL     1      -5.183   6.474  -0.383  1.00  0.00     0.163 HD
ENDROOT
BRANCH   1   5
ATOM      5  C   UNL     1      -2.991   6.847  -1.781  1.00  0.00     0.065 A 
ATOM      6  C   UNL     1       0.057   8.154  -3.706  1.00  0.00     0.001 A 
ATOM      7  C   UNL     1      -1.151   8.251  -3.051  1.00  0.00     0.011 A 
ATOM      8  C   UNL     1       0.683   6.923  -3.840  1.00  0.00     0.002 A 
ATOM      9  C   UNL     1      -1.742   7.106  -2.521  1.00  0.00     0.012 A 
ATOM     10  C   UNL     1       0.110   5.783  -3.321  1.00  0.00     0.027 A 
ATOM     11  C   UNL     1      -1.109   5.860  -2.656  1.00  0.00     0.049 A 
ATOM     12  N   UNL     1      -1.913   4.920  -2.044  1.00  0.00    -0.341 N 
ATOM     13  C   UNL     1      -3.023   5.506  -1.535  1.00  0.00     0.100 A 
BRANCH  12  14
ATOM     14  C   UNL     1      -1.610   3.489  -1.962  1.00  0.00     0.187 C 
BRANCH  14  15
ATOM     15  C   UNL     1      -0.773   3.216  -0.711  1.00  0.00     0.204 C 
ATOM     16  C   UNL     1       0.558   3.963  -0.815  1.00  0.00     0.067 C 
ATOM     17  N   UNL     1      -0.502   1.765  -0.622  1.00  0.00    -0.331 N 
ATOM     18  C   UNL     1       1.401   3.671   0.430  1.00  0.00     0.012 C 
ATOM     19  C   UNL     1       0.249   1.464   0.615  1.00  0.00     0.262 C 
ATOM     20  H   UNL     1       0.064   1.480  -1.434  1.00  0.00     0.348 HD
ATOM     21  C   UNL     1       1.611   2.159   0.552  1.00  0.00     0.062 C 
BRANCH  17  22
ATOM     22  C   UNL     1      -1.774   1.013  -0.635  1.00  0.00     0.267 C 
BRANCH  22  23
ATOM     23  C   UNL     1      -1.463  -0.485  -0.645  1.00  0.00     0.097 C 
BRANCH  23  24
ATOM     24  C   UNL     1      -2.742  -1.263  -0.819  1.00  0.00    -0.038 A 
ATOM     25  C   UNL     1      -3.517  -1.572   0.284  1.00  0.00     0.054 A 
ATOM     26  C   UNL     1      -3.136  -1.670  -2.080  1.00  0.00     0.008 A 
ATOM     27  C   UNL     1      -4.696  -2.281   0.126  1.00  0.00     0.166 A 
ATOM     28  C   UNL     1      -4.308  -2.384  -2.244  1.00  0.00     0.051 A 
ATOM     29  C   UNL     1      -5.093  -2.692  -1.145  1.00  0.00     0.165 A 
ATOM     30  O   UNL     1      -5.627  -2.703   1.031  1.00  0.00    -0.454 OA
ATOM     31  O   UNL     1      -6.272  -3.371  -1.036  1.00  0.00    -0.454 OA
ATOM     32  C   UNL     1      -6.384  -3.725   0.356  1.00  0.00     0.468 C 
ENDBRANCH  23  24
ENDBRANCH  22  23
ENDBRANCH  17  22
ENDBRANCH  14  15
ENDBRANCH  12  14
ENDBRANCH   1   5
BRANCH   3  33
ATOM     33  C   UNL     1      -6.002   8.472  -0.149  1.00  0.00     0.144 C 
BRANCH  33  34
ATOM     34  C   UNL     1      -7.014   7.811   0.788  1.00  0.00     0.181 C 
BRANCH  34  35
ATOM     35  O   UNL     1      -6.344   7.346   1.962  1.00  0.00    -0.377 OA
BRANCH  35  36
ATOM     36  C   UNL     1      -7.205   6.708   2.908  1.00  0.00     0.188 C 
BRANCH  36  37
ATOM     37  C   UNL     1      -6.385   6.253   4.117  1.00  0.00     0.184 C 
BRANCH  37  38
ATOM     38  O   UNL     1      -5.859   7.397   4.794  1.00  0.00    -0.394 OA
ATOM     39  H   UNL     1      -6.604   7.972   5.099  1.00  0.00     0.210 HD
ENDBRANCH  37  38
ENDBRANCH  36  37
ENDBRANCH  35  36
ENDBRANCH  34  35
ENDBRANCH  33  34
ENDBRANCH   3  33
TORSDOF 12
