REMARK SMILES Cc1ccc2c(c1)N(CCC[NH+]1CCC(C(N)=O)(N3CCCCC3)CC1)c1ccccc1S2
REMARK SMILES IDX 10 1 9 2 8 3 1 4 2 5 7 6 3 7 6 8 4 9 5 10 33 11 27 12 32 13
REMARK SMILES IDX 28 14 31 15 29 16 30 17 11 18 12 19 26 20 13 21 25 23 14 24
REMARK SMILES IDX 15 25 16 26 18 27 17 28 19 31 24 32 20 33 23 34 21 35 22 36
REMARK H PARENT 12 22 17 29 17 30
REMARK Flexibility Score: inf
ROOT
ATOM      1  C   UNL     1       4.785  -0.349   6.942  1.00  0.00     0.083 C 
ENDROOT
BRANCH   1   2
ATOM      2  C   UNL     1       5.719  -0.639   8.120  1.00  0.00     0.128 C 
BRANCH   2   3
ATOM      3  N   UNL     1       5.024  -0.349   9.376  1.00  0.00    -0.339 N 
ATOM      4  C   UNL     1       2.650  -4.599   8.845  1.00  0.00     0.044 C 
ATOM      5  C   UNL     1       3.135  -3.473   9.721  1.00  0.00    -0.049 A 
ATOM      6  C   UNL     1       3.850  -2.428   9.167  1.00  0.00     0.031 A 
ATOM      7  C   UNL     1       2.864  -3.489  11.076  1.00  0.00     0.005 A 
ATOM      8  C   UNL     1       4.303  -1.384   9.967  1.00  0.00     0.056 A 
ATOM      9  C   UNL     1       3.317  -2.456  11.886  1.00  0.00     0.018 A 
ATOM     10  C   UNL     1       4.030  -1.402  11.334  1.00  0.00     0.036 A 
ATOM     11  S   UNL     1       4.579  -0.087  12.370  1.00  0.00    -0.086 SA
ATOM     12  C   UNL     1       5.131   0.941   9.888  1.00  0.00     0.055 A 
ATOM     13  C   UNL     1       4.959   1.212  11.243  1.00  0.00     0.036 A 
ATOM     14  C   UNL     1       5.418   1.987   9.017  1.00  0.00     0.027 A 
ATOM     15  C   UNL     1       5.082   2.512  11.713  1.00  0.00     0.017 A 
ATOM     16  C   UNL     1       5.536   3.279   9.492  1.00  0.00     0.002 A 
ATOM     17  C   UNL     1       5.370   3.543  10.838  1.00  0.00     0.001 A 
ENDBRANCH   2   3
ENDBRANCH   1   2
BRANCH   1  18
ATOM     18  C   UNL     1       5.511  -0.652   5.630  1.00  0.00     0.264 C 
BRANCH  18  19
ATOM     19  N   UNL     1       4.615  -0.373   4.500  1.00  0.00    -0.335 N 
ATOM     20  C   UNL     1       3.279  -0.934   4.737  1.00  0.00     0.264 C 
ATOM     21  C   UNL     1       5.184  -0.872   3.241  1.00  0.00     0.264 C 
ATOM     22  H   UNL     1       4.516   0.649   4.417  1.00  0.00     0.348 HD
ATOM     23  C   UNL     1       2.335  -0.502   3.612  1.00  0.00     0.094 C 
ATOM     24  C   UNL     1       4.298  -0.438   2.071  1.00  0.00     0.094 C 
ATOM     25  C   UNL     1       2.887  -0.997   2.272  1.00  0.00     0.111 C 
BRANCH  25  26
ATOM     26  C   UNL     1       2.938  -2.503   2.272  1.00  0.00     0.238 C 
ATOM     27  O   UNL     1       2.934  -3.110   3.322  1.00  0.00    -0.273 OA
ATOM     28  N   UNL     1       2.987  -3.176   1.105  1.00  0.00    -0.368 N 
ATOM     29  H   UNL     1       2.991  -2.661   0.213  1.00  0.00     0.159 HD
ATOM     30  H   UNL     1       3.022  -4.206   1.105  1.00  0.00     0.159 HD
ENDBRANCH  25  26
BRANCH  25  31
ATOM     31  N   UNL     1       2.016  -0.536   1.182  1.00  0.00    -0.289 NA
ATOM     32  C   UNL     1       1.950   0.931   1.147  1.00  0.00     0.085 C 
ATOM     33  C   UNL     1       0.676  -1.125   1.293  1.00  0.00     0.085 C 
ATOM     34  C   UNL     1       1.156   1.377  -0.083  1.00  0.00     0.016 C 
ATOM     35  C   UNL     1      -0.156  -0.740   0.068  1.00  0.00     0.016 C 
ATOM     36  C   UNL     1      -0.254   0.786  -0.017  1.00  0.00     0.003 C 
ENDBRANCH  25  31
ENDBRANCH  18  19
ENDBRANCH   1  18
TORSDOF 6
