REMARK SMILES CCCCc1ccc(-n2c(N)c(C(=O)N[C@H](C)CCc3ccccc3)c3nc4ccccc4nc32)cc1
REMARK SMILES IDX 9 1 10 2 12 3 26 4 35 5 34 6 33 7 32 8 31 9 30 10 29 11
REMARK SMILES IDX 28 12 27 13 8 14 5 15 37 16 6 17 36 18 7 19 4 20 3 21 2 22
REMARK SMILES IDX 1 23 11 24 13 27 14 28 15 29 16 31 17 32 18 33 19 34 20 35
REMARK SMILES IDX 25 36 21 37 24 38 22 39 23 40
REMARK H PARENT 11 25 11 26 15 30
REMARK Flexibility Score: inf
ROOT
ATOM      1  N   UNL     1      10.519   0.714   0.399  1.00  0.00    -0.278 N 
ATOM      2  C   UNL     1       9.764  -0.033  -0.456  1.00  0.00     0.125 A 
ATOM      3  C   UNL     1       8.656  -0.553   0.203  1.00  0.00     0.110 A 
ATOM      4  C   UNL     1       8.733  -0.076   1.593  1.00  0.00     0.123 A 
ATOM      5  C   UNL     1       9.956   0.730   1.661  1.00  0.00     0.166 A 
ATOM      6  N   UNL     1      10.296   1.295   2.799  1.00  0.00    -0.226 NA
ATOM      7  C   UNL     1       9.529   1.125   3.884  1.00  0.00     0.091 A 
ATOM      8  C   UNL     1       9.885   1.726   5.106  1.00  0.00     0.031 A 
ATOM      9  C   UNL     1       9.101   1.547   6.202  1.00  0.00     0.002 A 
ATOM     10  C   UNL     1       7.942   0.775   6.137  1.00  0.00     0.002 A 
ATOM     11  C   UNL     1       7.564   0.179   4.974  1.00  0.00     0.030 A 
ATOM     12  C   UNL     1       8.351   0.340   3.818  1.00  0.00     0.090 A 
ATOM     13  N   UNL     1       7.989  -0.242   2.668  1.00  0.00    -0.242 NA
ENDROOT
BRANCH   1  14
ATOM     14  C   UNL     1      11.703   1.376   0.047  1.00  0.00     0.049 A 
ATOM     15  C   UNL     1      14.041   2.682  -0.647  1.00  0.00    -0.048 A 
ATOM     16  C   UNL     1      14.075   1.645   0.267  1.00  0.00     0.006 A 
ATOM     17  C   UNL     1      12.840   3.068  -1.215  1.00  0.00     0.006 A 
ATOM     18  C   UNL     1      12.909   0.994   0.619  1.00  0.00     0.027 A 
ATOM     19  C   UNL     1      11.671   2.417  -0.870  1.00  0.00     0.027 A 
BRANCH  15  20
ATOM     20  C   UNL     1      15.314   3.394  -1.026  1.00  0.00     0.035 C 
BRANCH  20  21
ATOM     21  C   UNL     1      15.539   4.574  -0.079  1.00  0.00     0.004 C 
BRANCH  21  22
ATOM     22  C   UNL     1      16.832   5.297  -0.463  1.00  0.00    -0.003 C 
ATOM     23  C   UNL     1      17.056   6.478   0.484  1.00  0.00     0.004 C 
ENDBRANCH  21  22
ENDBRANCH  20  21
ENDBRANCH  15  20
ENDBRANCH   1  14
BRANCH   2  24
ATOM     24  N   UNL     1      10.058  -0.242  -1.778  1.00  0.00    -0.384 N 
ATOM     25  H   UNL     1      10.914   0.205  -2.137  1.00  0.00     0.158 HD
ATOM     26  H   UNL     1       9.461  -0.814  -2.392  1.00  0.00     0.158 HD
ENDBRANCH   2  24
BRANCH   3  27
ATOM     27  C   UNL     1       7.615  -1.402  -0.374  1.00  0.00     0.257 C 
ATOM     28  O   UNL     1       7.738  -2.614  -0.355  1.00  0.00    -0.269 OA
ATOM     29  N   UNL     1       6.520  -0.844  -0.926  1.00  0.00    -0.349 N 
ATOM     30  H   UNL     1       6.417   0.180  -0.942  1.00  0.00     0.164 HD
BRANCH  29  31
ATOM     31  C   UNL     1       5.477  -1.695  -1.504  1.00  0.00     0.079 C 
ATOM     32  C   UNL     1       5.846  -2.046  -2.947  1.00  0.00     0.031 C 
BRANCH  31  33
ATOM     33  C   UNL     1       4.142  -0.948  -1.487  1.00  0.00     0.029 C 
BRANCH  33  34
ATOM     34  C   UNL     1       3.711  -0.707  -0.039  1.00  0.00     0.037 C 
BRANCH  34  35
ATOM     35  C   UNL     1       2.396   0.029  -0.022  1.00  0.00    -0.048 A 
ATOM     36  C   UNL     1       2.377   1.411  -0.014  1.00  0.00     0.004 A 
ATOM     37  C   UNL     1       1.208  -0.679  -0.014  1.00  0.00     0.004 A 
ATOM     38  C   UNL     1       1.171   2.086   0.002  1.00  0.00     0.000 A 
ATOM     39  C   UNL     1       0.002  -0.004   0.002  1.00  0.00     0.000 A 
ATOM     40  C   UNL     1      -0.017   1.378   0.010  1.00  0.00     0.000 A 
ENDBRANCH  34  35
ENDBRANCH  33  34
ENDBRANCH  31  33
ENDBRANCH  29  31
ENDBRANCH   3  27
TORSDOF 10
