REMARK SMILES Cn1cc(C[NH2+]Cc2ccccc2-c2ccc(C[NH+](C)C)cc2)c(-c2ccc3c(c2)OCCCO3)n1
REMARK SMILES IDX 5 1 4 2 1 3 2 4 36 5 3 6 24 7 25 8 30 9 26 10 29 11 27 12
REMARK SMILES IDX 28 13 31 14 32 15 33 16 35 18 34 19 6 21 7 24 8 25 13 26
REMARK SMILES IDX 9 27 12 28 10 29 11 30 14 31 23 32 15 33 22 34 16 35 17 36
REMARK SMILES IDX 18 37 19 38 20 39 21 40
REMARK H PARENT 6 22 6 23 19 41
REMARK Flexibility Score: 80.00
ROOT
ATOM      1  C   UNL     1       3.663   0.750  -0.393  1.00  0.00     0.301 C 
ENDROOT
BRANCH   1   2
ATOM      2  C   UNL     1       2.186   0.842  -0.112  1.00  0.00     0.052 A 
ATOM      3  C   UNL     1      -0.896   2.563   0.630  1.00  0.00     0.173 C 
ATOM      4  N   UNL     1       0.200   1.636   0.336  1.00  0.00    -0.275 N 
ATOM      5  N   UNL     1       0.088   0.246   0.208  1.00  0.00    -0.173 NA
ATOM      6  C   UNL     1       1.492   1.974   0.135  1.00  0.00     0.118 A 
ATOM      7  C   UNL     1       1.282  -0.238  -0.062  1.00  0.00     0.101 A 
BRANCH   7   8
ATOM      8  C   UNL     1       1.618  -1.667  -0.276  1.00  0.00     0.006 A 
ATOM      9  C   UNL     1       0.775  -2.474  -1.040  1.00  0.00     0.060 A 
ATOM     10  C   UNL     1       2.772  -2.205   0.290  1.00  0.00     0.014 A 
ATOM     11  C   UNL     1       1.099  -3.804  -1.238  1.00  0.00     0.161 A 
ATOM     12  C   UNL     1       3.085  -3.535   0.092  1.00  0.00     0.051 A 
ATOM     13  C   UNL     1       2.250  -4.335  -0.672  1.00  0.00     0.161 A 
BRANCH  11  14
ATOM     14  O   UNL     1       0.286  -4.603  -1.989  1.00  0.00    -0.490 OA
BRANCH  14  15
ATOM     15  C   UNL     1      -0.411  -5.629  -1.279  1.00  0.00     0.233 C 
BRANCH  15  16
ATOM     16  C   UNL     1       0.463  -6.862  -1.116  1.00  0.00     0.083 CG0
ATOM     17  G   UNL     1       1.683  -6.596  -0.248  1.00  0.00     0.000 G0
ENDBRANCH  15  16
ENDBRANCH  14  15
ENDBRANCH  11  14
BRANCH  13  18
ATOM     18  O   UNL     1       2.554  -5.651  -0.872  1.00  0.00    -0.490 OA
BRANCH  18  19
ATOM     19  C   UNL     1       1.683  -6.596  -0.248  1.00  0.00     0.233 CG0
ATOM     20  G   UNL     1       0.463  -6.862  -1.116  1.00  0.00     0.000 G0
ENDBRANCH  18  19
ENDBRANCH  13  18
ENDBRANCH   7   8
ENDBRANCH   1   2
BRANCH   1  21
ATOM     21  N   UNL     1       3.877   0.552  -1.832  1.00  0.00    -0.339 N 
ATOM     22  H   UNL     1       3.345  -0.272  -2.145  1.00  0.00     0.346 HD
ATOM     23  H   UNL     1       3.539   1.379  -2.344  1.00  0.00     0.346 HD
BRANCH  21  24
ATOM     24  C   UNL     1       5.302   0.349  -2.130  1.00  0.00     0.298 C 
BRANCH  24  25
ATOM     25  C   UNL     1       5.482   0.150  -3.613  1.00  0.00     0.014 A 
ATOM     26  C   UNL     1       5.361   1.232  -4.482  1.00  0.00    -0.010 A 
ATOM     27  C   UNL     1       5.761  -1.106  -4.112  1.00  0.00     0.010 A 
ATOM     28  C   UNL     1       5.532   1.041  -5.852  1.00  0.00     0.009 A 
ATOM     29  C   UNL     1       5.926  -1.291  -5.473  1.00  0.00     0.001 A 
ATOM     30  C   UNL     1       5.811  -0.219  -6.341  1.00  0.00     0.001 A 
BRANCH  26  31
ATOM     31  C   UNL     1       5.054   2.583  -3.951  1.00  0.00    -0.018 A 
ATOM     32  C   UNL     1       5.880   3.160  -2.989  1.00  0.00     0.009 A 
ATOM     33  C   UNL     1       3.943   3.282  -4.417  1.00  0.00     0.009 A 
ATOM     34  C   UNL     1       5.591   4.417  -2.498  1.00  0.00     0.010 A 
ATOM     35  C   UNL     1       3.659   4.536  -3.915  1.00  0.00     0.010 A 
ATOM     36  C   UNL     1       4.483   5.104  -2.960  1.00  0.00     0.006 A 
BRANCH  36  37
ATOM     37  C   UNL     1       4.171   6.476  -2.421  1.00  0.00     0.298 C 
BRANCH  37  38
ATOM     38  N   UNL     1       4.840   7.490  -3.247  1.00  0.00    -0.336 N 
ATOM     39  C   UNL     1       4.282   7.514  -4.606  1.00  0.00     0.332 C 
ATOM     40  C   UNL     1       4.758   8.817  -2.622  1.00  0.00     0.332 C 
ATOM     41  H   UNL     1       5.835   7.235  -3.318  1.00  0.00     0.347 HD
ENDBRANCH  37  38
ENDBRANCH  36  37
ENDBRANCH  26  31
ENDBRANCH  24  25
ENDBRANCH  21  24
ENDBRANCH   1  21
TORSDOF 8
