REMARK SMILES C[C@H](Sc1nnc(Cc2cccs2)n1C1CCCCC1)C(=O)NC(=O)N[C@H](C)c1ccccc1
REMARK SMILES IDX 2 1 1 2 21 3 26 4 24 5 25 7 23 8 22 10 27 11 28 12 29 13
REMARK SMILES IDX 34 14 30 15 33 16 31 17 32 18 3 19 4 20 14 21 5 22 7 23 6 24
REMARK SMILES IDX 15 25 20 26 16 27 19 28 17 29 18 30 8 31 9 32 13 33 10 34
REMARK SMILES IDX 12 35 11 36
REMARK H PARENT 26 6 23 9
REMARK Flexibility Score: inf
ROOT
ATOM      1  C   UNL     1       3.614   2.014  -0.022  1.00  0.00     0.141 C 
ATOM      2  C   UNL     1       3.911   2.498  -1.442  1.00  0.00     0.030 C 
ENDROOT
BRANCH   1   3
ATOM      3  C   UNL     1       2.320   1.243  -0.013  1.00  0.00     0.241 C 
ATOM      4  N   UNL     1      -1.191   1.869   0.018  1.00  0.00    -0.331 N 
ATOM      5  C   UNL     1      -0.014   1.211   0.009  1.00  0.00     0.321 C 
ATOM      6  H   UNL     1      -1.205   2.899   0.024  1.00  0.00     0.166 HD
ATOM      7  O   UNL     1       0.002  -0.004   0.002  1.00  0.00    -0.248 OA
ATOM      8  N   UNL     1       1.143   1.901   0.001  1.00  0.00    -0.277 N 
ATOM      9  H   UNL     1       1.129   2.931   0.007  1.00  0.00     0.174 HD
ATOM     10  O   UNL     1       2.336   0.031  -0.020  1.00  0.00    -0.273 OA
BRANCH   4  11
ATOM     11  C   UNL     1      -2.449   1.119   0.020  1.00  0.00     0.111 C 
ATOM     12  C   UNL     1      -2.830   0.758  -1.417  1.00  0.00     0.036 C 
BRANCH  11  13
ATOM     13  C   UNL     1      -3.537   1.966   0.630  1.00  0.00    -0.026 A 
ATOM     14  C   UNL     1      -4.468   1.391   1.475  1.00  0.00     0.006 A 
ATOM     15  C   UNL     1      -3.600   3.317   0.349  1.00  0.00     0.006 A 
ATOM     16  C   UNL     1      -5.465   2.167   2.035  1.00  0.00     0.000 A 
ATOM     17  C   UNL     1      -4.601   4.093   0.906  1.00  0.00     0.000 A 
ATOM     18  C   UNL     1      -5.532   3.518   1.750  1.00  0.00     0.000 A 
ENDBRANCH  11  13
ENDBRANCH   4  11
ENDBRANCH   1   3
BRANCH   1  19
ATOM     19  S   UNL     1       4.959   0.942   0.543  1.00  0.00    -0.073 SA
BRANCH  19  20
ATOM     20  C   UNL     1       6.282   2.105   0.581  1.00  0.00     0.192 A 
ATOM     21  N   UNL     1       7.575   1.853   0.942  1.00  0.00    -0.303 N 
ATOM     22  N   UNL     1       6.213   3.376   0.261  1.00  0.00    -0.123 NA
ATOM     23  C   UNL     1       8.234   3.044   0.816  1.00  0.00     0.139 A 
ATOM     24  N   UNL     1       7.366   3.926   0.407  1.00  0.00    -0.134 NA
BRANCH  21  25
ATOM     25  C   UNL     1       8.138   0.571   1.374  1.00  0.00     0.091 C 
ATOM     26  C   UNL     1       7.412   0.093   2.633  1.00  0.00     0.025 C 
ATOM     27  C   UNL     1       7.965  -0.464   0.261  1.00  0.00     0.025 C 
ATOM     28  C   UNL     1       8.000  -1.245   3.084  1.00  0.00     0.002 C 
ATOM     29  C   UNL     1       8.553  -1.802   0.712  1.00  0.00     0.002 C 
ATOM     30  C   UNL     1       7.827  -2.280   1.971  1.00  0.00     0.000 C 
ENDBRANCH  21  25
BRANCH  23  31
ATOM     31  C   UNL     1       9.693   3.292   1.099  1.00  0.00     0.124 C 
BRANCH  31  32
ATOM     32  C   UNL     1      10.495   3.058  -0.155  1.00  0.00     0.012 A 
ATOM     33  S   UNL     1      11.250   1.551  -0.742  1.00  0.00    -0.148 S 
ATOM     34  C   UNL     1      10.824   3.936  -1.134  1.00  0.00     0.016 A 
ATOM     35  C   UNL     1      11.960   2.194  -2.248  1.00  0.00     0.065 A 
ATOM     36  C   UNL     1      11.579   3.495  -2.204  1.00  0.00     0.012 A 
ENDBRANCH  31  32
ENDBRANCH  23  31
ENDBRANCH  19  20
ENDBRANCH   1  19
TORSDOF 8
