REMARK SMILES CCOC(=O)c1cnn(-c2nc(=O)c3c4c(sc3[nH]2)COC(C)(C)C4)c1N
REMARK SMILES IDX 4 1 5 2 3 3 2 4 1 5 6 6 26 7 7 8 9 9 8 10 27 11 10 14 19 15
REMARK SMILES IDX 11 16 18 17 12 19 14 20 17 21 13 22 15 23 16 24 25 25 20 26
REMARK SMILES IDX 22 27 21 28 23 29 24 30
REMARK H PARENT 27 12 27 13 19 18
REMARK Flexibility Score: inf
ROOT
ATOM      1  C   UNL     1       1.850  -1.766  -0.026  1.00  0.00     0.343 C 
ATOM      2  O   UNL     1       1.074  -2.702  -0.024  1.00  0.00    -0.246 OA
ENDROOT
BRANCH   1   3
ATOM      3  O   UNL     1       3.179  -1.992  -0.040  1.00  0.00    -0.462 OA
BRANCH   3   4
ATOM      4  C   UNL     1       3.612  -3.378  -0.052  1.00  0.00     0.230 C 
ATOM      5  C   UNL     1       5.141  -3.435  -0.067  1.00  0.00     0.049 C 
ENDBRANCH   3   4
ENDBRANCH   1   3
BRANCH   1   6
ATOM      6  C   UNL     1       1.340  -0.392  -0.013  1.00  0.00     0.122 A 
ATOM      7  C   UNL     1       0.002  -0.004   0.002  1.00  0.00     0.145 A 
ATOM      8  C   UNL     1       2.115   0.794  -0.014  1.00  0.00     0.153 A 
ATOM      9  N   UNL     1      -0.016   1.356   0.009  1.00  0.00    -0.183 N 
ATOM     10  N   UNL     1       1.306   1.814  -0.001  1.00  0.00    -0.171 NA
BRANCH   7  11
ATOM     11  N   UNL     1      -1.093  -0.839   0.007  1.00  0.00    -0.383 N 
ATOM     12  H   UNL     1      -0.879  -1.847  -0.001  1.00  0.00     0.158 HD
ATOM     13  H   UNL     1      -2.065  -0.498   0.018  1.00  0.00     0.158 HD
ENDBRANCH   7  11
BRANCH   9  14
ATOM     14  C   UNL     1      -1.150   2.151   0.019  1.00  0.00     0.234 A 
ATOM     15  N   UNL     1      -2.337   1.587   0.017  1.00  0.00    -0.315 N 
ATOM     16  N   UNL     1      -1.018   3.508   0.026  1.00  0.00    -0.172 NA
ATOM     17  C   UNL     1      -3.442   2.324   0.031  1.00  0.00     0.109 A 
ATOM     18  H   UNL     1      -2.411   0.560   0.004  1.00  0.00     0.171 HD
ATOM     19  C   UNL     1      -2.096   4.314   0.036  1.00  0.00     0.283 A 
ATOM     20  C   UNL     1      -3.403   3.729   0.039  1.00  0.00     0.080 A 
ATOM     21  S   UNL     1      -5.179   1.957   0.037  1.00  0.00    -0.119 S 
ATOM     22  O   UNL     1      -1.961   5.526   0.041  1.00  0.00    -0.267 OA
ATOM     23  C   UNL     1      -4.700   4.401   0.049  1.00  0.00    -0.014 A 
ATOM     24  C   UNL     1      -5.800   3.615   0.050  1.00  0.00     0.037 A 
ATOM     25  C   UNL     1      -4.859   5.919   0.057  1.00  0.00     0.072 C 
ATOM     26  C   UNL     1      -7.222   4.082   0.061  1.00  0.00     0.207 C 
ATOM     27  C   UNL     1      -6.292   6.248  -0.375  1.00  0.00     0.067 C 
ATOM     28  O   UNL     1      -7.225   5.480   0.391  1.00  0.00    -0.370 OA
ATOM     29  C   UNL     1      -6.462   5.920  -1.859  1.00  0.00     0.042 C 
ATOM     30  C   UNL     1      -6.556   7.738  -0.150  1.00  0.00     0.042 C 
ENDBRANCH   9  14
ENDBRANCH   1   6
TORSDOF 5
