REMARK SMILES COc1ccc([C@H]2[NH2+]CCc3c2[nH]c2ccccc32)cc1CN1CCc2cc(OC)c(OC)cc2[C@@H]1C
REMARK SMILES IDX 22 1 23 2 37 3 36 4 35 5 24 6 26 7 34 8 25 9 27 10 31 11
REMARK SMILES IDX 28 12 32 13 33 14 29 15 30 16 21 17 3 18 20 19 4 20 6 21
REMARK SMILES IDX 5 22 2 23 1 24 7 25 8 26 12 27 9 28 13 31 11 32 10 33 14 34
REMARK SMILES IDX 19 36 15 37 18 38 16 39 17 40
REMARK H PARENT 8 29 8 30 13 35
REMARK Flexibility Score: inf
ROOT
ATOM      1  C   UNL     1       3.622   1.972  -0.158  1.00  0.00     0.124 C 
ENDROOT
BRANCH   1   2
ATOM      2  N   UNL     1       2.571   0.951  -0.264  1.00  0.00    -0.292 NA
ATOM      3  C   UNL     1       3.760  -0.251  -2.027  1.00  0.00     0.030 C 
ATOM      4  C   UNL     1       2.459   0.453  -1.638  1.00  0.00     0.084 C 
ATOM      5  C   UNL     1       1.314  -0.519  -1.756  1.00  0.00    -0.024 A 
ATOM      6  C   UNL     1       1.275   1.479   0.194  1.00  0.00     0.090 C 
ATOM      7  C   UNL     1       0.318  -0.587  -0.805  1.00  0.00    -0.038 A 
ATOM      8  C   UNL     1       1.273  -1.358  -2.861  1.00  0.00     0.056 A 
ATOM      9  C   UNL     1       0.323   0.303   0.411  1.00  0.00     0.051 C 
ATOM     10  C   UNL     1      -0.723  -1.492  -0.956  1.00  0.00     0.054 A 
ATOM     11  C   UNL     1       0.241  -2.266  -3.012  1.00  0.00     0.161 A 
ATOM     12  C   UNL     1      -0.766  -2.332  -2.054  1.00  0.00     0.161 A 
BRANCH  11  13
ATOM     13  O   UNL     1       0.208  -3.088  -4.095  1.00  0.00    -0.493 OA
ATOM     14  C   UNL     1       1.276  -2.963  -5.037  1.00  0.00     0.278 C 
ENDBRANCH  11  13
BRANCH  12  15
ATOM     15  O   UNL     1      -1.788  -3.219  -2.196  1.00  0.00    -0.493 OA
ATOM     16  C   UNL     1      -2.785  -3.230  -1.172  1.00  0.00     0.278 C 
ENDBRANCH  12  15
ENDBRANCH   1   2
BRANCH   1  17
ATOM     17  C   UNL     1       3.706   2.461   1.265  1.00  0.00     0.009 A 
ATOM     18  C   UNL     1       2.882   3.490   1.696  1.00  0.00     0.123 A 
ATOM     19  C   UNL     1       4.601   1.880   2.144  1.00  0.00     0.019 A 
ATOM     20  C   UNL     1       2.961   3.937   3.007  1.00  0.00     0.047 A 
ATOM     21  C   UNL     1       4.682   2.331   3.448  1.00  0.00     0.016 A 
ATOM     22  C   UNL     1       3.861   3.357   3.880  1.00  0.00     0.014 A 
BRANCH  18  23
ATOM     23  O   UNL     1       1.997   4.059   0.835  1.00  0.00    -0.496 OA
ATOM     24  C   UNL     1       1.180   5.113   1.348  1.00  0.00     0.278 C 
ENDBRANCH  18  23
BRANCH  21  25
ATOM     25  C   UNL     1       5.662   1.700   4.402  1.00  0.00     0.261 C 
ATOM     26  N   UNL     1       6.265   2.740   5.252  1.00  0.00    -0.335 N 
ATOM     27  C   UNL     1       4.943   0.710   5.288  1.00  0.00     0.083 A 
ATOM     28  C   UNL     1       7.066   2.151   6.335  1.00  0.00     0.266 C 
ATOM     29  H   UNL     1       6.870   3.341   4.673  1.00  0.00     0.347 HD
ATOM     30  H   UNL     1       5.519   3.320   5.660  1.00  0.00     0.347 HD
ATOM     31  N   UNL     1       4.007  -0.212   4.909  1.00  0.00    -0.353 N 
ATOM     32  C   UNL     1       5.158   0.622   6.621  1.00  0.00    -0.007 A 
ATOM     33  C   UNL     1       6.136   1.495   7.365  1.00  0.00     0.099 C 
ATOM     34  C   UNL     1       3.590  -0.923   5.998  1.00  0.00     0.046 A 
ATOM     35  H   UNL     1       3.667  -0.350   3.946  1.00  0.00     0.166 HD
ATOM     36  C   UNL     1       4.298  -0.426   7.124  1.00  0.00     0.003 A 
ATOM     37  C   UNL     1       2.666  -1.956   6.141  1.00  0.00     0.026 A 
ATOM     38  C   UNL     1       4.090  -0.954   8.402  1.00  0.00     0.010 A 
ATOM     39  C   UNL     1       2.481  -2.459   7.417  1.00  0.00     0.002 A 
ATOM     40  C   UNL     1       3.174  -1.970   8.512  1.00  0.00     0.001 A 
ENDBRANCH  21  25
ENDBRANCH   1  17
TORSDOF 6
