REMARK SMILES O=C(Cc1ccc2c(c1)CCCC2)NNc1ccc(C(F)(F)F)cc1[N+](=O)[O-]
REMARK SMILES IDX 2 1 1 2 14 3 3 5 4 6 5 7 6 8 9 9 7 10 8 11 13 12 10 13 12 14
REMARK SMILES IDX 11 15 15 16 16 18 25 19 17 20 24 21 18 22 19 23 26 24 28 25
REMARK SMILES IDX 27 26 20 27 21 28 22 29 23 30
REMARK H PARENT 14 4 15 17
REMARK Flexibility Score: inf
ROOT
ATOM      1  C   UNL     1       1.147   1.657  -0.005  1.00  0.00     0.242 C 
ATOM      2  O   UNL     1       1.135   2.853   0.191  1.00  0.00    -0.273 OA
ATOM      3  N   UNL     1      -0.013   0.970  -0.050  1.00  0.00    -0.269 N 
ATOM      4  H   UNL     1      -0.003  -0.047  -0.212  1.00  0.00     0.191 HD
ENDROOT
BRANCH   1   5
ATOM      5  C   UNL     1       2.456   0.937  -0.198  1.00  0.00     0.137 C 
BRANCH   5   6
ATOM      6  C   UNL     1       3.591   1.924  -0.103  1.00  0.00    -0.038 A 
ATOM      7  C   UNL     1       4.049   2.566  -1.238  1.00  0.00     0.004 A 
ATOM      8  C   UNL     1       5.086   3.471  -1.142  1.00  0.00     0.004 A 
ATOM      9  C   UNL     1       4.180   2.185   1.117  1.00  0.00     0.008 A 
ATOM     10  C   UNL     1       5.682   3.733   0.084  1.00  0.00    -0.045 A 
ATOM     11  C   UNL     1       5.228   3.092   1.215  1.00  0.00    -0.045 A 
ATOM     12  C   UNL     1       6.819   4.721   0.114  1.00  0.00     0.036 C 
ATOM     13  C   UNL     1       5.820   3.335   2.578  1.00  0.00     0.036 C 
ATOM     14  C   UNL     1       7.064   5.214   1.539  1.00  0.00     0.005 C 
ATOM     15  C   UNL     1       7.193   3.994   2.458  1.00  0.00     0.005 C 
ENDBRANCH   5   6
ENDBRANCH   1   5
BRANCH   3  16
ATOM     16  N   UNL     1      -1.231   1.641   0.124  1.00  0.00    -0.292 N 
ATOM     17  H   UNL     1      -1.240   2.657   0.291  1.00  0.00     0.188 HD
BRANCH  16  18
ATOM     18  C   UNL     1      -2.432   0.930   0.072  1.00  0.00     0.132 A 
ATOM     19  C   UNL     1      -3.644   1.607   0.139  1.00  0.00     0.294 A 
ATOM     20  C   UNL     1      -2.418  -0.454  -0.040  1.00  0.00     0.035 A 
ATOM     21  C   UNL     1      -4.830   0.901   0.082  1.00  0.00     0.101 A 
ATOM     22  C   UNL     1      -3.608  -1.153  -0.091  1.00  0.00     0.016 A 
ATOM     23  C   UNL     1      -4.813  -0.476  -0.030  1.00  0.00     0.062 A 
BRANCH  19  24
ATOM     24  N   UNL     1      -3.663   3.081   0.264  1.00  0.00     0.065 N 
ATOM     25  O   UNL     1      -4.505   3.622   0.958  1.00  0.00    -0.258 OA
ATOM     26  O   UNL     1      -2.837   3.754  -0.327  1.00  0.00    -0.258 OA
ENDBRANCH  19  24
BRANCH  23  27
ATOM     27  C   UNL     1      -6.109  -1.243  -0.086  1.00  0.00     0.416 C 
ATOM     28  F   UNL     1      -5.838  -2.611  -0.198  1.00  0.00    -0.166 F 
ATOM     29  F   UNL     1      -6.841  -1.007   1.083  1.00  0.00    -0.166 F 
ATOM     30  F   UNL     1      -6.852  -0.822  -1.194  1.00  0.00    -0.166 F 
ENDBRANCH  23  27
ENDBRANCH  16  18
ENDBRANCH   3  16
TORSDOF 6
