REMARK SMILES C=c1[nH]n(-c2ccccc2)c(=O)/c1=C\NNC(=O)c1cccc2ccccc12
REMARK SMILES IDX 15 1 14 3 1 4 2 5 3 6 13 7 4 8 11 10 12 11 5 12 10 13 6 14
REMARK SMILES IDX 9 15 7 16 8 17 16 18 17 19 18 21 19 22 28 23 20 24 23 25
REMARK SMILES IDX 27 26 21 27 22 28 24 29 26 30 25 31
REMARK H PARENT 15 2 3 9 16 20
REMARK Flexibility Score: inf
ROOT
ATOM      1  N   UNL     1      -1.206   2.024  -0.001  1.00  0.00    -0.305 N 
ATOM      2  H   UNL     1      -2.091   1.497   0.015  1.00  0.00     0.187 HD
ENDROOT
BRANCH   1   3
ATOM      3  C   UNL     1      -0.017   1.358  -0.031  1.00  0.00     0.117 C 
ATOM      4  C   UNL     1       2.474  -0.510  -0.120  1.00  0.00     0.039 C 
ATOM      5  C   UNL     1       1.194  -0.889  -0.080  1.00  0.00     0.062 A 
ATOM      6  N   UNL     1       0.704  -2.196  -0.068  1.00  0.00    -0.291 N 
ATOM      7  C   UNL     1       0.002  -0.004  -0.038  1.00  0.00     0.084 A 
ATOM      8  N   UNL     1      -0.691  -2.173  -0.031  1.00  0.00    -0.219 N 
ATOM      9  H   UNL     1       1.284  -3.047  -0.083  1.00  0.00     0.188 HD
ATOM     10  C   UNL     1      -1.154  -0.911  -0.013  1.00  0.00     0.280 A 
ATOM     11  O   UNL     1      -2.325  -0.579   0.020  1.00  0.00    -0.267 OA
BRANCH   8  12
ATOM     12  C   UNL     1      -1.500  -3.313  -0.016  1.00  0.00     0.066 A 
ATOM     13  C   UNL     1      -0.923  -4.577  -0.038  1.00  0.00     0.028 A 
ATOM     14  C   UNL     1      -2.882  -3.185   0.026  1.00  0.00     0.028 A 
ATOM     15  C   UNL     1      -1.725  -5.701  -0.022  1.00  0.00     0.002 A 
ATOM     16  C   UNL     1      -3.679  -4.313   0.036  1.00  0.00     0.002 A 
ATOM     17  C   UNL     1      -3.101  -5.570   0.015  1.00  0.00     0.000 A 
ENDBRANCH   8  12
ENDBRANCH   1   3
BRANCH   1  18
ATOM     18  N   UNL     1      -1.225   3.425   0.006  1.00  0.00    -0.266 N 
ATOM     19  C   UNL     1      -2.401   4.082   0.036  1.00  0.00     0.270 C 
ATOM     20  H   UNL     1      -0.341   3.952  -0.010  1.00  0.00     0.191 HD
ATOM     21  O   UNL     1      -3.446   3.460   0.055  1.00  0.00    -0.267 OA
BRANCH  19  22
ATOM     22  C   UNL     1      -2.421   5.557   0.044  1.00  0.00     0.049 A 
ATOM     23  C   UNL     1      -3.650   6.258  -0.047  1.00  0.00    -0.006 A 
ATOM     24  C   UNL     1      -1.238   6.274   0.146  1.00  0.00     0.014 A 
ATOM     25  C   UNL     1      -3.642   7.674  -0.037  1.00  0.00    -0.018 A 
ATOM     26  C   UNL     1      -4.870   5.576  -0.148  1.00  0.00     0.009 A 
ATOM     27  C   UNL     1      -1.250   7.663   0.148  1.00  0.00     0.001 A 
ATOM     28  C   UNL     1      -2.419   8.359   0.062  1.00  0.00     0.009 A 
ATOM     29  C   UNL     1      -4.861   8.369  -0.127  1.00  0.00     0.009 A 
ATOM     30  C   UNL     1      -6.033   6.281  -0.234  1.00  0.00     0.001 A 
ATOM     31  C   UNL     1      -6.027   7.674  -0.223  1.00  0.00     0.001 A 
ENDBRANCH  19  22
ENDBRANCH   1  18
TORSDOF 4
