REMARK SMILES C#C[C@]1(O)CC[C@@H]2[C@@H]3CCC4=C/C(=N/OCC(=O)NCCc5ccc(O)c(O)c5)CC[C@@]4(C)[C@H]3CC[C@@]21C
REMARK SMILES IDX 17 1 18 2 19 3 16 5 15 6 14 7 33 8 32 9 11 10 34 11 31 12
REMARK SMILES IDX 12 13 10 14 8 15 35 16 30 17 13 18 9 19 7 20 36 21 37 22
REMARK SMILES IDX 6 23 3 24 38 25 5 26 2 27 1 28 4 29 20 31 21 32 22 33 29 34
REMARK SMILES IDX 23 35 27 36 24 37 25 38 28 39 26 41
REMARK H PARENT 19 4 4 30 28 40 26 42
REMARK Flexibility Score: inf
ROOT
ATOM      1  C   UNL     1       1.204  -5.016  -6.665  1.00  0.00     0.260 C 
ATOM      2  O   UNL     1       0.006  -4.847  -6.754  1.00  0.00    -0.271 OA
ATOM      3  N   UNL     1       1.794  -6.026  -7.333  1.00  0.00    -0.353 N 
ATOM      4  H   UNL     1       2.811  -6.170  -7.258  1.00  0.00     0.163 HD
ENDROOT
BRANCH   1   5
ATOM      5  C   UNL     1       2.033  -4.095  -5.807  1.00  0.00     0.363 C 
BRANCH   5   6
ATOM      6  O   UNL     1       1.187  -3.112  -5.207  1.00  0.00    -0.385 OA
BRANCH   6   7
ATOM      7  N   UNL     1       1.871  -2.193  -4.375  1.00  0.00    -0.091 NA
ATOM      8  C   UNL     1      -0.463   1.778  -3.696  1.00  0.00     0.016 C 
ATOM      9  C   UNL     1      -0.207   0.877  -2.486  1.00  0.00    -0.008 C 
ATOM     10  C   UNL     1       1.276   0.686  -2.306  1.00  0.00    -0.062 C 
ATOM     11  C   UNL     1      -0.788   1.550  -1.214  1.00  0.00     0.002 C 
ATOM     12  C   UNL     1      -0.879  -0.479  -2.708  1.00  0.00     0.018 C 
ATOM     13  C   UNL     1       1.924  -0.298  -2.910  1.00  0.00     0.027 C 
ATOM     14  C   UNL     1       2.010   1.654  -1.410  1.00  0.00     0.032 C 
ATOM     15  C   UNL     1      -0.013   1.086   0.008  1.00  0.00    -0.003 C 
ATOM     16  C   UNL     1      -2.252   1.104  -1.095  1.00  0.00     0.005 C 
ATOM     17  C   UNL     1      -0.277  -1.135  -3.956  1.00  0.00     0.061 C 
ATOM     18  C   UNL     1       1.215  -1.252  -3.773  1.00  0.00     0.080 C 
ATOM     19  C   UNL     1       1.434   1.573  -0.003  1.00  0.00     0.008 C 
ATOM     20  C   UNL     1      -0.663   1.533   1.298  1.00  0.00     0.002 C 
ATOM     21  C   UNL     1      -2.873   1.741   0.142  1.00  0.00     0.011 C 
ATOM     22  C   UNL     1      -2.163   1.232   1.401  1.00  0.00     0.011 C 
ATOM     23  C   UNL     1      -0.566   3.056   1.507  1.00  0.00     0.008 C 
ATOM     24  C   UNL     1      -2.622   2.143   2.571  1.00  0.00     0.130 C 
ATOM     25  C   UNL     1      -2.464  -0.245   1.669  1.00  0.00     0.016 C 
ATOM     26  C   UNL     1      -1.623   3.338   2.600  1.00  0.00     0.050 C 
BRANCH  24  27
ATOM     27  C   UNL     1      -3.973   2.663   2.306  1.00  0.00    -0.071 C 
ATOM     28  C   UNL     1      -5.050   3.079   2.095  1.00  0.00     0.007 C 
ENDBRANCH  24  27
BRANCH  24  29
ATOM     29  O   UNL     1      -2.609   1.410   3.797  1.00  0.00    -0.377 OA
ATOM     30  H   UNL     1      -1.691   1.084   3.973  1.00  0.00     0.212 HD
ENDBRANCH  24  29
ENDBRANCH   6   7
ENDBRANCH   5   6
ENDBRANCH   1   5
BRANCH   3  31
ATOM     31  C   UNL     1       0.988  -6.921  -8.168  1.00  0.00     0.120 C 
BRANCH  31  32
ATOM     32  C   UNL     1       1.894  -7.973  -8.810  1.00  0.00     0.057 C 
BRANCH  32  33
ATOM     33  C   UNL     1       1.065  -8.894  -9.668  1.00  0.00    -0.042 A 
ATOM     34  C   UNL     1       0.519 -10.040  -9.122  1.00  0.00     0.054 A 
ATOM     35  C   UNL     1       0.857  -8.593 -11.002  1.00  0.00     0.008 A 
ATOM     36  C   UNL     1      -0.248 -10.885  -9.909  1.00  0.00     0.157 A 
ATOM     37  C   UNL     1       0.098  -9.434 -11.793  1.00  0.00     0.050 A 
ATOM     38  C   UNL     1      -0.457 -10.582 -11.251  1.00  0.00     0.157 A 
BRANCH  36  39
ATOM     39  O   UNL     1      -0.790 -12.010  -9.372  1.00  0.00    -0.504 OA
ATOM     40  H   UNL     1      -0.452 -12.750  -9.936  1.00  0.00     0.293 HD
ENDBRANCH  36  39
BRANCH  38  41
ATOM     41  O   UNL     1      -1.204 -11.411 -12.028  1.00  0.00    -0.504 OA
ATOM     42  H   UNL     1      -0.612 -11.653 -12.784  1.00  0.00     0.293 HD
ENDBRANCH  38  41
ENDBRANCH  32  33
ENDBRANCH  31  32
ENDBRANCH   3  31
TORSDOF 10
