REMARK SMILES Cc1ccc(-c2cnc(SCC(=O)N3CCC(C(N)=O)CC3)n2-c2ccc(C)cc2C)cc1
REMARK SMILES IDX 11 1 10 2 9 3 6 4 23 5 7 6 8 7 5 8 1 9 2 10 33 11 3 12 32 13
REMARK SMILES IDX 4 14 24 15 30 16 25 17 29 18 31 19 26 20 27 21 28 22 12 23
REMARK SMILES IDX 13 24 14 25 22 26 15 27 21 28 16 29 17 30 18 31 20 32 19 33
REMARK H PARENT 19 34 19 35
REMARK Flexibility Score: inf
ROOT
ATOM      1  C   UNL     1      -1.293  -0.775   0.010  1.00  0.00     0.178 C 
ENDROOT
BRANCH   1   2
ATOM      2  S   UNL     1      -0.938  -2.550  -0.003  1.00  0.00    -0.078 SA
BRANCH   2   3
ATOM      3  C   UNL     1      -2.579  -3.190   0.010  1.00  0.00     0.173 A 
ATOM      4  C   UNL     1      -4.303  -4.571   0.019  1.00  0.00     0.074 A 
ATOM      5  N   UNL     1      -2.918  -4.512   0.006  1.00  0.00    -0.287 N 
ATOM      6  C   UNL     1      -4.746  -3.286   0.031  1.00  0.00     0.141 A 
ATOM      7  N   UNL     1      -3.681  -2.474   0.030  1.00  0.00    -0.230 NA
BRANCH   4   8
ATOM      8  C   UNL     1      -5.134  -5.792   0.020  1.00  0.00     0.000 A 
ATOM      9  C   UNL     1      -7.541  -9.327   0.020  1.00  0.00     0.044 C 
ATOM     10  C   UNL     1      -6.693  -8.081   0.021  1.00  0.00    -0.051 A 
ATOM     11  C   UNL     1      -5.316  -8.185   0.111  1.00  0.00     0.004 A 
ATOM     12  C   UNL     1      -7.295  -6.838  -0.069  1.00  0.00     0.004 A 
ATOM     13  C   UNL     1      -4.534  -7.050   0.106  1.00  0.00     0.010 A 
ATOM     14  C   UNL     1      -6.524  -5.694  -0.070  1.00  0.00     0.010 A 
ENDBRANCH   4   8
BRANCH   5  15
ATOM     15  C   UNL     1      -2.035  -5.600  -0.010  1.00  0.00     0.051 A 
ATOM     16  C   UNL     1      -1.610  -6.133  -1.219  1.00  0.00    -0.027 A 
ATOM     17  C   UNL     1      -1.580  -6.144   1.184  1.00  0.00     0.027 A 
ATOM     18  C   UNL     1      -0.740  -7.206  -1.231  1.00  0.00     0.009 A 
ATOM     19  C   UNL     1      -2.096  -5.542  -2.517  1.00  0.00     0.046 C 
ATOM     20  C   UNL     1      -0.715  -7.221   1.165  1.00  0.00     0.005 A 
ATOM     21  C   UNL     1      -0.293  -7.749  -0.041  1.00  0.00    -0.051 A 
ATOM     22  C   UNL     1       0.657  -8.919  -0.058  1.00  0.00     0.044 C 
ENDBRANCH   5  15
ENDBRANCH   2   3
ENDBRANCH   1   2
BRANCH   1  23
ATOM     23  C   UNL     1       0.002  -0.004   0.002  1.00  0.00     0.233 C 
ATOM     24  O   UNL     1       1.060  -0.596  -0.011  1.00  0.00    -0.274 OA
ATOM     25  N   UNL     1      -0.016   1.344   0.009  1.00  0.00    -0.342 N 
ATOM     26  C   UNL     1       1.238   2.109   0.002  1.00  0.00     0.120 C 
ATOM     27  C   UNL     1      -1.290   2.075   0.019  1.00  0.00     0.120 C 
ATOM     28  C   UNL     1       1.199   3.107  -1.161  1.00  0.00     0.035 C 
ATOM     29  C   UNL     1      -1.301   3.072  -1.137  1.00  0.00     0.035 C 
ATOM     30  C   UNL     1      -0.062   3.966  -1.048  1.00  0.00     0.081 C 
BRANCH  30  31
ATOM     31  C   UNL     1      -0.086   4.972  -2.171  1.00  0.00     0.220 C 
ATOM     32  O   UNL     1       0.816   4.997  -2.981  1.00  0.00    -0.275 OA
ATOM     33  N   UNL     1      -1.110   5.842  -2.275  1.00  0.00    -0.369 N 
ATOM     34  H   UNL     1      -1.876   5.820  -1.587  1.00  0.00     0.159 HD
ATOM     35  H   UNL     1      -1.126   6.529  -3.042  1.00  0.00     0.159 HD
ENDBRANCH  30  31
ENDBRANCH   1  23
TORSDOF 6
