REMARK SMILES Cc1ccc(-c2nn(CN3CCC(C(N)=O)CC3)c(=O)c3ccccc23)cc1
REMARK SMILES IDX 9 1 8 2 6 3 7 4 26 5 21 6 25 7 19 8 22 9 24 10 20 11 23 12
REMARK SMILES IDX 5 13 1 14 2 15 28 16 3 17 27 18 4 19 10 20 18 21 11 22 17 23
REMARK SMILES IDX 12 24 13 25 14 26 16 27 15 28
REMARK H PARENT 15 29 15 30
REMARK Flexibility Score: inf
ROOT
ATOM      1  C   UNL     1       2.212   4.220  -1.032  1.00  0.00     0.235 C 
ENDROOT
BRANCH   1   2
ATOM      2  N   UNL     1       1.034   3.544  -0.483  1.00  0.00    -0.214 N 
ATOM      3  C   UNL     1      -0.018   1.478   0.010  1.00  0.00     0.099 A 
ATOM      4  N   UNL     1       0.999   2.150  -0.465  1.00  0.00    -0.168 NA
ATOM      5  C   UNL     1      -1.183   2.196   0.547  1.00  0.00     0.015 A 
ATOM      6  C   UNL     1      -1.165   3.608   0.544  1.00  0.00     0.051 A 
ATOM      7  C   UNL     1      -2.285   1.520   1.069  1.00  0.00     0.011 A 
ATOM      8  C   UNL     1       0.014   4.288  -0.007  1.00  0.00     0.275 A 
ATOM      9  C   UNL     1      -2.254   4.316   1.052  1.00  0.00     0.014 A 
ATOM     10  C   UNL     1      -3.350   2.239   1.566  1.00  0.00     0.001 A 
ATOM     11  O   UNL     1       0.070   5.504  -0.034  1.00  0.00    -0.267 OA
ATOM     12  C   UNL     1      -3.335   3.628   1.558  1.00  0.00     0.001 A 
BRANCH   3  13
ATOM     13  C   UNL     1       0.002  -0.004   0.002  1.00  0.00     0.003 A 
ATOM     14  C   UNL     1       0.060  -4.279  -0.021  1.00  0.00     0.044 C 
ATOM     15  C   UNL     1       0.040  -2.772  -0.013  1.00  0.00    -0.051 A 
ATOM     16  C   UNL     1      -0.465  -2.096   1.083  1.00  0.00     0.004 A 
ATOM     17  C   UNL     1       0.527  -2.071  -1.101  1.00  0.00     0.004 A 
ATOM     18  C   UNL     1      -0.482  -0.717   1.098  1.00  0.00     0.011 A 
ATOM     19  C   UNL     1       0.511  -0.691  -1.100  1.00  0.00     0.011 A 
ENDBRANCH   3  13
ENDBRANCH   1   2
BRANCH   1  20
ATOM     20  N   UNL     1       2.190   4.127  -2.498  1.00  0.00    -0.284 NA
ATOM     21  C   UNL     1       2.950   5.226  -3.107  1.00  0.00     0.087 C 
ATOM     22  C   UNL     1       0.811   4.092  -3.003  1.00  0.00     0.087 C 
ATOM     23  C   UNL     1       3.029   5.017  -4.621  1.00  0.00     0.029 C 
ATOM     24  C   UNL     1       0.826   3.849  -4.514  1.00  0.00     0.029 C 
ATOM     25  C   UNL     1       1.611   4.971  -5.199  1.00  0.00     0.081 C 
BRANCH  25  26
ATOM     26  C   UNL     1       1.680   4.705  -6.681  1.00  0.00     0.220 C 
ATOM     27  O   UNL     1       2.756   4.566  -7.223  1.00  0.00    -0.275 OA
ATOM     28  N   UNL     1       0.546   4.622  -7.404  1.00  0.00    -0.369 N 
ATOM     29  H   UNL     1      -0.368   4.741  -6.944  1.00  0.00     0.159 HD
ATOM     30  H   UNL     1       0.593   4.441  -8.416  1.00  0.00     0.159 HD
ENDBRANCH  25  26
ENDBRANCH   1  20
TORSDOF 4
