REMARK SMILES Cc1ccc(C(=O)N/C(=C\c2ccc(-c3cc(Cl)ccc3Cl)o2)C(=O)NCc2cccnc2)cc1
REMARK SMILES IDX 24 1 25 2 26 3 9 5 10 6 8 7 6 8 7 9 5 11 1 12 2 13 35 14
REMARK SMILES IDX 3 15 34 16 4 17 11 18 23 19 12 20 14 21 13 22 15 23 21 24
REMARK SMILES IDX 16 25 20 26 22 27 17 28 19 29 18 30 27 31 28 32 33 33 29 34
REMARK SMILES IDX 32 35 30 36 31 37
REMARK H PARENT 26 4 8 10
REMARK Flexibility Score: inf
ROOT
ATOM      1  C   UNL     1       1.177   1.687   0.174  1.00  0.00     0.268 C 
ATOM      2  O   UNL     1       1.203   2.893   0.335  1.00  0.00    -0.268 OA
ATOM      3  N   UNL     1      -0.002   1.033   0.168  1.00  0.00    -0.347 N 
ATOM      4  H   UNL     1      -0.024   0.012   0.036  1.00  0.00     0.164 HD
ENDROOT
BRANCH   1   5
ATOM      5  C   UNL     1       2.426   0.946  -0.015  1.00  0.00     0.110 C 
ATOM      6  C   UNL     1       2.407  -0.414  -0.085  1.00  0.00     0.079 C 
BRANCH   5   7
ATOM      7  N   UNL     1       3.639   1.635  -0.122  1.00  0.00    -0.317 N 
ATOM      8  C   UNL     1       3.810   2.550  -1.097  1.00  0.00     0.255 C 
ATOM      9  O   UNL     1       2.946   2.712  -1.938  1.00  0.00    -0.269 OA
ATOM     10  H   UNL     1       4.401   1.443   0.543  1.00  0.00     0.170 HD
BRANCH   8  11
ATOM     11  C   UNL     1       5.047   3.357  -1.144  1.00  0.00     0.040 A 
ATOM     12  C   UNL     1       8.626   5.694  -1.279  1.00  0.00     0.044 C 
ATOM     13  C   UNL     1       7.365   4.871  -1.231  1.00  0.00    -0.051 A 
ATOM     14  C   UNL     1       7.192   3.932  -0.229  1.00  0.00     0.004 A 
ATOM     15  C   UNL     1       6.384   5.056  -2.190  1.00  0.00     0.004 A 
ATOM     16  C   UNL     1       6.038   3.178  -0.177  1.00  0.00     0.014 A 
ATOM     17  C   UNL     1       5.227   4.306  -2.152  1.00  0.00     0.014 A 
ENDBRANCH   8  11
ENDBRANCH   5   7
BRANCH   6  18
ATOM     18  C   UNL     1       3.620  -1.134  -0.172  1.00  0.00     0.129 A 
ATOM     19  O   UNL     1       4.861  -0.609  -0.099  1.00  0.00    -0.457 OA
ATOM     20  C   UNL     1       3.743  -2.500  -0.342  1.00  0.00     0.051 A 
ATOM     21  C   UNL     1       5.770  -1.593  -0.221  1.00  0.00     0.136 A 
ATOM     22  C   UNL     1       5.113  -2.780  -0.377  1.00  0.00     0.051 A 
BRANCH  21  23
ATOM     23  C   UNL     1       7.235  -1.420  -0.190  1.00  0.00     0.037 A 
ATOM     24  C   UNL     1       8.020  -2.216   0.650  1.00  0.00     0.052 A 
ATOM     25  C   UNL     1       7.845  -0.454  -0.995  1.00  0.00     0.034 A 
ATOM     26  C   UNL     1       9.390  -2.051   0.669  1.00  0.00     0.023 A 
ATOM     27  Cl  UNL     1       7.273  -3.414   1.660  1.00  0.00    -0.084 Cl
ATOM     28  C   UNL     1       9.215  -0.297  -0.961  1.00  0.00     0.041 A 
ATOM     29  C   UNL     1       9.987  -1.094  -0.131  1.00  0.00     0.022 A 
ATOM     30  Cl  UNL     1       9.975   0.901  -1.961  1.00  0.00    -0.084 Cl
ENDBRANCH  21  23
ENDBRANCH   6  18
ENDBRANCH   1   5
BRANCH   3  31
ATOM     31  C   UNL     1      -1.252   1.775   0.351  1.00  0.00     0.153 C 
BRANCH  31  32
ATOM     32  C   UNL     1      -2.416   0.819   0.298  1.00  0.00    -0.010 A 
ATOM     33  C   UNL     1      -2.879   0.216   1.452  1.00  0.00     0.116 A 
ATOM     34  C   UNL     1      -3.039   0.538  -0.909  1.00  0.00     0.009 A 
ATOM     35  N   UNL     1      -3.897  -0.622   1.413  1.00  0.00    -0.264 NA
ATOM     36  C   UNL     1      -4.103  -0.351  -0.910  1.00  0.00     0.020 A 
ATOM     37  C   UNL     1      -4.510  -0.916   0.284  1.00  0.00     0.111 A 
ENDBRANCH  31  32
ENDBRANCH   3  31
TORSDOF 7
