REMARK SMILES Cc1ccc(-n2nc(C)c([C@H]3Nc4nc5ccccc5cc4C(=O)N3c3ccccc3)c2[O-])cc1
REMARK SMILES IDX 11 1 12 2 13 3 22 4 21 5 20 6 19 7 18 8 17 9 16 10 15 11
REMARK SMILES IDX 14 12 23 13 24 14 25 15 10 17 6 18 7 19 32 20 8 21 33 22
REMARK SMILES IDX 9 23 5 24 1 25 2 26 35 27 3 28 34 29 4 30 26 31 31 32 27 33
REMARK SMILES IDX 30 34 28 35 29 36
REMARK H PARENT 12 16
REMARK Flexibility Score: inf
ROOT
ATOM      1  C   UNL     1       5.896   1.746   0.482  1.00  0.00     0.220 C 
ATOM      2  N   UNL     1       4.704   1.163  -0.141  1.00  0.00    -0.345 N 
ATOM      3  C   UNL     1       3.495   1.836  -0.033  1.00  0.00     0.141 A 
ATOM      4  C   UNL     1       3.533   3.251   0.060  1.00  0.00     0.083 A 
ATOM      5  C   UNL     1       2.353   3.967   0.131  1.00  0.00     0.028 A 
ATOM      6  C   UNL     1       1.145   3.244   0.122  1.00  0.00     0.001 A 
ATOM      7  C   UNL     1      -0.094   3.903   0.191  1.00  0.00     0.010 A 
ATOM      8  C   UNL     1      -1.245   3.176   0.189  1.00  0.00     0.001 A 
ATOM      9  C   UNL     1      -1.210   1.785   0.113  1.00  0.00     0.002 A 
ATOM     10  C   UNL     1      -0.027   1.114   0.047  1.00  0.00     0.029 A 
ATOM     11  C   UNL     1       1.183   1.829   0.045  1.00  0.00     0.073 A 
ATOM     12  N   UNL     1       2.355   1.185  -0.031  1.00  0.00    -0.230 NA
ATOM     13  C   UNL     1       4.844   3.923   0.092  1.00  0.00     0.264 C 
ATOM     14  O   UNL     1       4.915   5.135   0.013  1.00  0.00    -0.268 OA
ATOM     15  N   UNL     1       5.964   3.182   0.211  1.00  0.00    -0.283 N 
ATOM     16  H   UNL     1       4.762   0.270  -0.650  1.00  0.00     0.164 HD
ENDROOT
BRANCH   1  17
ATOM     17  C   UNL     1       5.840   1.523   1.971  1.00  0.00     0.029 A 
ATOM     18  N   UNL     1       6.115   1.769   4.133  1.00  0.00    -0.248 N 
ATOM     19  N   UNL     1       5.373   0.602   3.910  1.00  0.00    -0.174 NA
ATOM     20  C   UNL     1       6.398   2.319   2.921  1.00  0.00    -0.001 A 
ATOM     21  C   UNL     1       5.209   0.457   2.620  1.00  0.00     0.066 A 
ATOM     22  O   UNL     1       7.107   3.455   2.701  1.00  0.00    -0.858 OA
ATOM     23  C   UNL     1       4.466  -0.669   1.948  1.00  0.00     0.069 C 
BRANCH  18  24
ATOM     24  C   UNL     1       6.503   2.276   5.380  1.00  0.00     0.064 A 
ATOM     25  C   UNL     1       7.685   3.822   9.185  1.00  0.00     0.044 C 
ATOM     26  C   UNL     1       7.269   3.277   7.844  1.00  0.00    -0.051 A 
ATOM     27  C   UNL     1       8.106   3.416   6.752  1.00  0.00     0.005 A 
ATOM     28  C   UNL     1       6.050   2.638   7.707  1.00  0.00     0.005 A 
ATOM     29  C   UNL     1       7.729   2.913   5.522  1.00  0.00     0.028 A 
ATOM     30  C   UNL     1       5.665   2.138   6.479  1.00  0.00     0.028 A 
ENDBRANCH  18  24
ENDBRANCH   1  17
BRANCH  15  31
ATOM     31  C   UNL     1       7.213   3.796   0.071  1.00  0.00     0.046 A 
ATOM     32  C   UNL     1       8.373   3.086   0.350  1.00  0.00     0.026 A 
ATOM     33  C   UNL     1       7.295   5.116  -0.353  1.00  0.00     0.026 A 
ATOM     34  C   UNL     1       9.604   3.696   0.211  1.00  0.00     0.002 A 
ATOM     35  C   UNL     1       8.530   5.722  -0.485  1.00  0.00     0.002 A 
ATOM     36  C   UNL     1       9.683   5.012  -0.206  1.00  0.00     0.000 A 
ENDBRANCH  15  31
TORSDOF 3
