REMARK SMILES O=C(CCn1c(=S)[n-]c2ccccc2c1=O)NC[C@H](c1ccccc1)c1c[nH]c2ccccc12
REMARK SMILES IDX 17 1 2 2 1 3 18 5 19 6 20 7 23 8 24 9 22 10 25 11 21 12
REMARK SMILES IDX 26 13 34 14 27 15 29 16 33 17 28 18 30 19 32 20 31 22 3 23
REMARK SMILES IDX 4 24 5 25 6 26 15 27 8 28 7 29 16 30 14 31 9 32 13 33 10 34
REMARK SMILES IDX 12 35 11 36
REMARK H PARENT 17 4 28 21
REMARK Flexibility Score: inf
ROOT
ATOM      1  N   UNL     1       7.019   5.791  -2.645  1.00  0.00    -0.355 N 
ATOM      2  C   UNL     1       6.466   5.417  -1.474  1.00  0.00     0.219 C 
ATOM      3  O   UNL     1       6.985   5.741  -0.427  1.00  0.00    -0.275 OA
ATOM      4  H   UNL     1       6.578   5.515  -3.534  1.00  0.00     0.163 HD
ENDROOT
BRANCH   1   5
ATOM      5  C   UNL     1       8.247   6.589  -2.653  1.00  0.00     0.129 C 
BRANCH   5   6
ATOM      6  C   UNL     1       8.660   6.876  -4.098  1.00  0.00     0.071 C 
BRANCH   6   7
ATOM      7  C   UNL     1       9.021   5.583  -4.783  1.00  0.00    -0.039 A 
ATOM      8  C   UNL     1       9.684   3.211  -6.040  1.00  0.00     0.000 A 
ATOM      9  C   UNL     1      10.382   3.618  -4.918  1.00  0.00     0.000 A 
ATOM     10  C   UNL     1       8.653   3.990  -6.532  1.00  0.00     0.000 A 
ATOM     11  C   UNL     1      10.054   4.806  -4.293  1.00  0.00     0.004 A 
ATOM     12  C   UNL     1       8.322   5.176  -5.904  1.00  0.00     0.004 A 
ENDBRANCH   6   7
BRANCH   6  13
ATOM     13  C   UNL     1       9.851   7.798  -4.107  1.00  0.00    -0.013 A 
ATOM     14  C   UNL     1       9.920   9.127  -4.719  1.00  0.00     0.003 A 
ATOM     15  C   UNL     1      11.049   7.561  -3.550  1.00  0.00     0.087 A 
ATOM     16  C   UNL     1      11.221   9.602  -4.473  1.00  0.00     0.046 A 
ATOM     17  C   UNL     1       9.013   9.917  -5.428  1.00  0.00     0.010 A 
ATOM     18  N   UNL     1      11.883   8.625  -3.763  1.00  0.00    -0.361 N 
ATOM     19  C   UNL     1      11.588  10.859  -4.941  1.00  0.00     0.026 A 
ATOM     20  C   UNL     1       9.394  11.149  -5.879  1.00  0.00     0.001 A 
ATOM     21  H   UNL     1      12.859   8.686  -3.442  1.00  0.00     0.166 HD
ATOM     22  C   UNL     1      10.677  11.622  -5.639  1.00  0.00     0.002 A 
ENDBRANCH   6  13
ENDBRANCH   5   6
ENDBRANCH   1   5
BRANCH   2  23
ATOM     23  C   UNL     1       5.202   4.595  -1.466  1.00  0.00     0.099 C 
BRANCH  23  24
ATOM     24  C   UNL     1       4.790   4.309  -0.021  1.00  0.00     0.020 C 
BRANCH  24  25
ATOM     25  N   UNL     1       3.562   3.510  -0.013  1.00  0.00    -0.401 N 
ATOM     26  C   UNL     1       2.372   4.131   0.002  1.00  0.00     0.012 A 
ATOM     27  C   UNL     1       3.648   2.162  -0.022  1.00  0.00     0.179 A 
ATOM     28  N   UNL     1       1.203   3.468   0.010  1.00  0.00    -0.426 NA
ATOM     29  S   UNL     1       2.342   5.843   0.011  1.00  0.00    -0.089 S 
ATOM     30  O   UNL     1       4.729   1.606  -0.035  1.00  0.00    -0.293 OA
ATOM     31  C   UNL     1       2.397   1.382  -0.014  1.00  0.00     0.022 A 
ATOM     32  C   UNL     1       1.178   2.081   0.002  1.00  0.00    -0.030 A 
ATOM     33  C   UNL     1       2.402  -0.011  -0.021  1.00  0.00     0.012 A 
ATOM     34  C   UNL     1      -0.017   1.377   0.010  1.00  0.00     0.004 A 
ATOM     35  C   UNL     1       1.204  -0.695  -0.013  1.00  0.00     0.001 A 
ATOM     36  C   UNL     1       0.002  -0.004   0.002  1.00  0.00     0.000 A 
ENDBRANCH  24  25
ENDBRANCH  23  24
ENDBRANCH   2  23
TORSDOF 7
