REMARK SMILES CCCCn1nc(C(=O)Nc2nc(-c3ccc[nH]3)cs2)c2ccccc2c1=O
REMARK SMILES IDX 5 1 27 2 28 3 26 4 25 5 24 6 23 7 22 8 21 9 7 10 6 11 4 12
REMARK SMILES IDX 3 13 2 14 1 15 8 16 9 17 10 18 11 20 20 21 12 22 19 23 13 24
REMARK SMILES IDX 14 25 18 26 15 27 17 28 16 30
REMARK H PARENT 10 19 18 29
REMARK Flexibility Score: inf
ROOT
ATOM      1  N   UNL     1       2.297   4.005   0.002  1.00  0.00    -0.229 N 
ATOM      2  C   UNL     1       3.549   3.503  -0.012  1.00  0.00     0.274 A 
ATOM      3  O   UNL     1       4.517   4.242  -0.017  1.00  0.00    -0.267 OA
ATOM      4  C   UNL     1       3.718   2.043  -0.021  1.00  0.00     0.051 A 
ATOM      5  C   UNL     1       4.966   1.427  -0.035  1.00  0.00     0.014 A 
ATOM      6  C   UNL     1       5.039   0.050  -0.043  1.00  0.00     0.001 A 
ATOM      7  C   UNL     1       3.885  -0.722  -0.036  1.00  0.00     0.001 A 
ATOM      8  C   UNL     1       2.639  -0.130  -0.022  1.00  0.00     0.011 A 
ATOM      9  C   UNL     1       2.543   1.257  -0.009  1.00  0.00     0.020 A 
ATOM     10  C   UNL     1       1.253   1.967   0.001  1.00  0.00     0.157 A 
ATOM     11  N   UNL     1       1.245   3.278   0.008  1.00  0.00    -0.164 NA
ENDROOT
BRANCH   1  12
ATOM     12  C   UNL     1       2.134   5.461   0.011  1.00  0.00     0.148 C 
BRANCH  12  13
ATOM     13  C   UNL     1       2.064   5.976  -1.428  1.00  0.00     0.024 C 
BRANCH  13  14
ATOM     14  C   UNL     1       1.894   7.496  -1.418  1.00  0.00    -0.002 C 
ATOM     15  C   UNL     1       1.824   8.011  -2.857  1.00  0.00     0.004 C 
ENDBRANCH  13  14
ENDBRANCH  12  13
ENDBRANCH   1  12
BRANCH  10  16
ATOM     16  C   UNL     1      -0.014   1.212   0.009  1.00  0.00     0.278 C 
ATOM     17  O   UNL     1       0.002  -0.004   0.002  1.00  0.00    -0.267 OA
ATOM     18  N   UNL     1      -1.191   1.870   0.018  1.00  0.00    -0.296 N 
ATOM     19  H   UNL     1      -1.204   2.900   0.024  1.00  0.00     0.172 HD
BRANCH  18  20
ATOM     20  C   UNL     1      -2.383   1.159   0.020  1.00  0.00     0.190 A 
ATOM     21  S   UNL     1      -2.645  -0.608   0.003  1.00  0.00    -0.105 S 
ATOM     22  N   UNL     1      -3.623   1.611   0.028  1.00  0.00    -0.218 NA
ATOM     23  C   UNL     1      -4.433  -0.572   0.020  1.00  0.00     0.099 A 
ATOM     24  C   UNL     1      -4.660   0.777   0.028  1.00  0.00     0.100 A 
BRANCH  24  25
ATOM     25  C   UNL     1      -6.043   1.302   0.037  1.00  0.00     0.065 A 
ATOM     26  N   UNL     1      -7.191   0.553   0.032  1.00  0.00    -0.360 N 
ATOM     27  C   UNL     1      -6.401   2.617   0.046  1.00  0.00     0.030 A 
ATOM     28  C   UNL     1      -8.263   1.399   0.048  1.00  0.00     0.083 A 
ATOM     29  H   UNL     1      -7.237  -0.476   0.019  1.00  0.00     0.166 HD
ATOM     30  C   UNL     1      -7.806   2.668   0.053  1.00  0.00     0.020 A 
ENDBRANCH  24  25
ENDBRANCH  18  20
ENDBRANCH  10  16
TORSDOF 6
