REMARK SMILES O=C(c1cc2cc(C3(O)CC[NH+](Cc4cccs4)CC3)ccc2o1)N1CCc2ccccc2C1
REMARK SMILES IDX 8 1 10 2 11 3 19 4 20 5 12 6 7 8 3 9 24 10 4 11 23 12 5 13
REMARK SMILES IDX 22 14 6 15 21 16 2 17 1 18 25 19 30 20 29 21 31 22 28 23
REMARK SMILES IDX 32 24 33 25 27 26 34 27 26 28 9 29 13 31 14 32 18 33 15 34
REMARK SMILES IDX 17 35 16 36
REMARK H PARENT 12 7 9 30
REMARK Flexibility Score: inf
ROOT
ATOM      1  C   UNL     1       0.019   0.005  -0.168  1.00  0.00     0.100 C 
ATOM      2  C   UNL     1       0.135  -0.518   1.266  1.00  0.00     0.102 C 
ATOM      3  C   UNL     1       0.224  -2.046   1.241  1.00  0.00     0.265 C 
ATOM      4  C   UNL     1       1.278  -2.008  -0.940  1.00  0.00     0.265 C 
ATOM      5  C   UNL     1       1.223  -0.479  -0.980  1.00  0.00     0.102 C 
ATOM      6  N   UNL     1       1.416  -2.446   0.465  1.00  0.00    -0.330 N 
ATOM      7  H   UNL     1       2.247  -1.996   0.875  1.00  0.00     0.348 HD
ENDROOT
BRANCH   1   8
ATOM      8  C   UNL     1      -0.006   1.512  -0.154  1.00  0.00    -0.015 A 
ATOM      9  C   UNL     1      -1.664   5.777   0.003  1.00  0.00     0.192 A 
ATOM     10  O   UNL     1      -0.330   5.602  -0.096  1.00  0.00    -0.451 OA
ATOM     11  C   UNL     1      -2.284   4.569   0.037  1.00  0.00     0.065 A 
ATOM     12  C   UNL     1      -0.019   4.291  -0.129  1.00  0.00     0.135 A 
ATOM     13  C   UNL     1      -1.222   3.566  -0.048  1.00  0.00     0.021 A 
ATOM     14  C   UNL     1       1.184   3.600  -0.223  1.00  0.00     0.048 A 
ATOM     15  C   UNL     1      -1.201   2.170  -0.067  1.00  0.00     0.018 A 
ATOM     16  C   UNL     1       1.184   2.222  -0.234  1.00  0.00     0.010 A 
BRANCH   9  17
ATOM     17  C   UNL     1      -2.345   7.078   0.063  1.00  0.00     0.289 C 
ATOM     18  O   UNL     1      -3.559   7.132   0.021  1.00  0.00    -0.265 OA
BRANCH  17  19
ATOM     19  N   UNL     1      -1.623   8.212   0.164  1.00  0.00    -0.331 N 
ATOM     20  C   UNL     1       1.470  10.738   3.176  1.00  0.00     0.000 A 
ATOM     21  C   UNL     1       0.124  10.806   2.884  1.00  0.00     0.004 A 
ATOM     22  C   UNL     1       2.277   9.845   2.497  1.00  0.00     0.000 A 
ATOM     23  C   UNL     1      -0.431   9.983   1.911  1.00  0.00    -0.041 A 
ATOM     24  C   UNL     1       1.730   9.029   1.528  1.00  0.00     0.006 A 
ATOM     25  C   UNL     1       0.375   9.098   1.230  1.00  0.00    -0.025 A 
ATOM     26  C   UNL     1      -1.910  10.103   1.656  1.00  0.00     0.057 C 
ATOM     27  C   UNL     1      -0.156   8.186   0.154  1.00  0.00     0.155 C 
ATOM     28  C   UNL     1      -2.275   9.527   0.283  1.00  0.00     0.125 C 
ENDBRANCH  17  19
ENDBRANCH   9  17
ENDBRANCH   1   8
BRANCH   1  29
ATOM     29  O   UNL     1      -1.185  -0.487  -0.759  1.00  0.00    -0.385 OA
ATOM     30  H   UNL     1      -1.259  -0.150  -1.687  1.00  0.00     0.211 HD
ENDBRANCH   1  29
BRANCH   6  31
ATOM     31  C   UNL     1       1.586  -3.913   0.521  1.00  0.00     0.310 C 
BRANCH  31  32
ATOM     32  C   UNL     1       1.453  -4.371   1.951  1.00  0.00     0.059 A 
ATOM     33  S   UNL     1       2.714  -4.521   3.205  1.00  0.00    -0.143 S 
ATOM     34  C   UNL     1       0.343  -4.770   2.619  1.00  0.00     0.021 A 
ATOM     35  C   UNL     1       1.679  -5.112   4.534  1.00  0.00     0.065 A 
ATOM     36  C   UNL     1       0.460  -5.155   3.942  1.00  0.00     0.012 A 
ENDBRANCH  31  32
ENDBRANCH   6  31
TORSDOF 6
