REMARK SMILES CCc1ccc(NC(=O)C(=O)NCCc2csc3nc(-c4ccc(Cl)cc4)nn23)cc1
REMARK SMILES IDX 10 1 11 2 12 3 8 5 7 6 9 8 6 9 3 10 31 11 4 12 30 13 5 14
REMARK SMILES IDX 2 15 1 16 13 17 14 18 15 19 29 20 16 21 18 22 28 23 17 24
REMARK SMILES IDX 19 25 20 26 21 27 27 28 22 29 26 30 23 31 24 32 25 33
REMARK H PARENT 12 4 7 7
REMARK Flexibility Score: inf
ROOT
ATOM      1  C   UNL     1      -0.018   1.489   0.017  1.00  0.00     0.309 C 
ATOM      2  O   UNL     1      -1.077   2.082   0.034  1.00  0.00    -0.264 OA
ATOM      3  N   UNL     1       1.139   2.179   0.007  1.00  0.00    -0.347 N 
ATOM      4  H   UNL     1       2.038   1.677  -0.011  1.00  0.00     0.163 HD
ENDROOT
BRANCH   1   5
ATOM      5  C   UNL     1       0.002  -0.004   0.000  1.00  0.00     0.313 C 
ATOM      6  N   UNL     1      -1.156  -0.694   0.009  1.00  0.00    -0.318 N 
ATOM      7  H   UNL     1      -2.052  -0.195   0.100  1.00  0.00     0.170 HD
ATOM      8  O   UNL     1       1.061  -0.596  -0.022  1.00  0.00    -0.263 OA
BRANCH   6   9
ATOM      9  C   UNL     1      -1.140  -2.086  -0.104  1.00  0.00     0.041 A 
ATOM     10  C   UNL     1      -1.110  -4.844  -0.327  1.00  0.00    -0.048 A 
ATOM     11  C   UNL     1      -2.135  -4.117  -0.904  1.00  0.00     0.006 A 
ATOM     12  C   UNL     1      -0.100  -4.197   0.361  1.00  0.00     0.006 A 
ATOM     13  C   UNL     1      -2.156  -2.741  -0.789  1.00  0.00     0.026 A 
ATOM     14  C   UNL     1      -0.112  -2.820   0.474  1.00  0.00     0.026 A 
BRANCH  10  15
ATOM     15  C   UNL     1      -1.093  -6.346  -0.450  1.00  0.00     0.032 C 
ATOM     16  C   UNL     1      -1.849  -6.963   0.729  1.00  0.00     0.009 C 
ENDBRANCH  10  15
ENDBRANCH   6   9
ENDBRANCH   1   5
BRANCH   3  17
ATOM     17  C   UNL     1       1.119   3.644   0.024  1.00  0.00     0.123 C 
BRANCH  17  18
ATOM     18  C   UNL     1       2.555   4.174   0.009  1.00  0.00     0.078 C 
BRANCH  18  19
ATOM     19  C   UNL     1       2.534   5.681   0.026  1.00  0.00     0.057 A 
ATOM     20  N   UNL     1       2.612   6.374  -1.158  1.00  0.00    -0.207 N 
ATOM     21  C   UNL     1       2.436   6.326   1.190  1.00  0.00     0.092 A 
ATOM     22  C   UNL     1       2.588   7.734  -1.085  1.00  0.00     0.212 A 
ATOM     23  N   UNL     1       2.717   6.099  -2.546  1.00  0.00    -0.145 NA
ATOM     24  S   UNL     1       2.457   8.032   0.661  1.00  0.00    -0.103 S 
ATOM     25  N   UNL     1       2.669   8.242  -2.283  1.00  0.00    -0.197 NA
ATOM     26  C   UNL     1       2.748   7.250  -3.179  1.00  0.00     0.183 A 
BRANCH  26  27
ATOM     27  C   UNL     1       2.853   7.423  -4.649  1.00  0.00     0.021 A 
ATOM     28  C   UNL     1       2.876   8.702  -5.202  1.00  0.00     0.013 A 
ATOM     29  C   UNL     1       2.933   6.308  -5.480  1.00  0.00     0.013 A 
ATOM     30  C   UNL     1       2.974   8.857  -6.570  1.00  0.00     0.021 A 
ATOM     31  C   UNL     1       3.026   6.473  -6.847  1.00  0.00     0.021 A 
ATOM     32  C   UNL     1       3.049   7.746  -7.392  1.00  0.00     0.041 A 
ATOM     33  Cl  UNL     1       3.171   7.948  -9.112  1.00  0.00    -0.084 Cl
ENDBRANCH  26  27
ENDBRANCH  18  19
ENDBRANCH  17  18
ENDBRANCH   3  17
TORSDOF 7
