REMARK SMILES NC(=O)C1CCN(C(=O)c2cc3ccccc3n2C[C@H]2CCC[N@@H+]2Cc2cccc(C(F)(F)F)c2)CC1
REMARK SMILES IDX 20 1 21 2 22 3 23 4 24 5 19 7 18 8 14 9 13 10 15 11 12 12
REMARK SMILES IDX 16 13 17 14 11 15 10 16 8 17 9 18 7 19 36 20 6 21 37 22 5 23
REMARK SMILES IDX 4 24 2 25 3 26 1 27 25 30 26 31 35 32 27 33 30 34 28 35
REMARK SMILES IDX 29 36 31 37 32 38 33 39 34 40
REMARK H PARENT 24 6 1 28 1 29
REMARK Flexibility Score: inf
ROOT
ATOM      1  C   UNL     1      -3.144   4.700  -2.403  1.00  0.00     0.204 C 
ATOM      2  C   UNL     1      -3.476   6.088  -3.006  1.00  0.00     0.073 C 
ATOM      3  C   UNL     1      -3.016   5.909  -4.476  1.00  0.00     0.068 C 
ATOM      4  C   UNL     1      -1.771   5.007  -4.345  1.00  0.00     0.263 C 
ATOM      5  N   UNL     1      -1.881   4.297  -3.057  1.00  0.00    -0.327 N 
ATOM      6  H   UNL     1      -1.084   4.549  -2.455  1.00  0.00     0.348 HD
ENDROOT
BRANCH   1   7
ATOM      7  C   UNL     1      -2.948   4.809  -0.889  1.00  0.00     0.187 C 
BRANCH   7   8
ATOM      8  N   UNL     1      -2.569   3.501  -0.350  1.00  0.00    -0.330 N 
ATOM      9  C   UNL     1       1.024   1.692   0.577  1.00  0.00     0.001 A 
ATOM     10  C   UNL     1      -0.186   1.085   0.746  1.00  0.00     0.010 A 
ATOM     11  C   UNL     1       1.104   2.984   0.071  1.00  0.00     0.002 A 
ATOM     12  C   UNL     1      -1.361   1.766   0.401  1.00  0.00     0.000 A 
ATOM     13  C   UNL     1      -0.037   3.675  -0.270  1.00  0.00     0.027 A 
ATOM     14  C   UNL     1      -1.284   3.078  -0.107  1.00  0.00     0.049 A 
ATOM     15  C   UNL     1      -2.734   1.422   0.449  1.00  0.00     0.042 A 
ATOM     16  C   UNL     1      -3.442   2.484  -0.018  1.00  0.00     0.108 A 
BRANCH  16  17
ATOM     17  C   UNL     1      -4.907   2.545  -0.137  1.00  0.00     0.270 C 
ATOM     18  O   UNL     1      -5.478   3.618  -0.078  1.00  0.00    -0.267 OA
ATOM     19  N   UNL     1      -5.617   1.413  -0.311  1.00  0.00    -0.337 N 
ATOM     20  C   UNL     1      -7.086   1.437  -0.276  1.00  0.00     0.120 C 
ATOM     21  C   UNL     1      -4.937   0.132  -0.546  1.00  0.00     0.120 C 
ATOM     22  C   UNL     1      -7.572   0.404   0.745  1.00  0.00     0.035 C 
ATOM     23  C   UNL     1      -5.447  -0.888   0.484  1.00  0.00     0.035 C 
ATOM     24  C   UNL     1      -6.974  -0.964   0.406  1.00  0.00     0.081 C 
BRANCH  24  25
ATOM     25  C   UNL     1      -7.477  -1.990   1.388  1.00  0.00     0.220 C 
ATOM     26  O   UNL     1      -8.238  -1.660   2.272  1.00  0.00    -0.275 OA
ATOM     27  N   UNL     1      -7.080  -3.273   1.284  1.00  0.00    -0.369 N 
ATOM     28  H   UNL     1      -6.433  -3.553   0.533  1.00  0.00     0.159 HD
ATOM     29  H   UNL     1      -7.424  -3.975   1.955  1.00  0.00     0.159 HD
ENDBRANCH  24  25
ENDBRANCH  16  17
ENDBRANCH   7   8
ENDBRANCH   1   7
BRANCH   5  30
ATOM     30  C   UNL     1      -1.830   2.842  -3.253  1.00  0.00     0.299 C 
BRANCH  30  31
ATOM     31  C   UNL     1      -0.657   2.494  -4.133  1.00  0.00     0.007 A 
ATOM     32  C   UNL     1       0.576   2.228  -3.567  1.00  0.00     0.022 A 
ATOM     33  C   UNL     1      -0.816   2.435  -5.505  1.00  0.00     0.009 A 
ATOM     34  C   UNL     1       1.652   1.909  -4.375  1.00  0.00     0.056 A 
ATOM     35  C   UNL     1       0.261   2.119  -6.312  1.00  0.00     0.001 A 
ATOM     36  C   UNL     1       1.495   1.855  -5.747  1.00  0.00     0.013 A 
BRANCH  34  37
ATOM     37  C   UNL     1       2.997   1.620  -3.758  1.00  0.00     0.416 C 
ATOM     38  F   UNL     1       3.099   0.252  -3.481  1.00  0.00    -0.166 F 
ATOM     39  F   UNL     1       4.008   1.991  -4.651  1.00  0.00    -0.166 F 
ATOM     40  F   UNL     1       3.132   2.348  -2.571  1.00  0.00    -0.166 F 
ENDBRANCH  34  37
ENDBRANCH  30  31
ENDBRANCH   5  30
TORSDOF 7
