REMARK SMILES CCN(CC(=O)N[C@H](c1ccccc1)c1ccc(Cl)cc1)Cc1nc(O)c2ccc(Cl)cc2n1
REMARK SMILES IDX 4 1 3 2 2 3 1 4 22 5 23 6 34 7 24 8 33 9 25 10 27 11 32 12
REMARK SMILES IDX 28 13 30 14 29 15 31 16 26 17 5 19 6 20 7 21 8 23 9 24 14 25
REMARK SMILES IDX 10 26 13 27 11 28 12 29 15 30 21 31 16 32 20 33 17 34 18 35
REMARK SMILES IDX 19 36
REMARK H PARENT 26 18 7 22
REMARK Flexibility Score: inf
ROOT
ATOM      1  C   UNL     1      -1.131  -0.293  -0.320  1.00  0.00     0.185 C 
ENDROOT
BRANCH   1   2
ATOM      2  N   UNL     1      -0.875  -1.719  -0.075  1.00  0.00    -0.287 NA
BRANCH   2   3
ATOM      3  C   UNL     1      -0.378  -2.380  -1.289  1.00  0.00     0.082 C 
ATOM      4  C   UNL     1       0.230  -3.735  -0.920  1.00  0.00     0.021 C 
ENDBRANCH   2   3
BRANCH   2   5
ATOM      5  C   UNL     1      -2.077  -2.390   0.436  1.00  0.00     0.162 C 
BRANCH   5   6
ATOM      6  C   UNL     1      -2.275  -2.031   1.886  1.00  0.00     0.147 A 
ATOM      7  N   UNL     1      -1.359  -1.325   2.476  1.00  0.00    -0.231 NA
ATOM      8  N   UNL     1      -3.400  -2.468   2.510  1.00  0.00    -0.196 NA
ATOM      9  C   UNL     1      -1.472  -0.960   3.778  1.00  0.00     0.079 A 
ATOM     10  C   UNL     1      -3.624  -2.173   3.812  1.00  0.00     0.222 A 
ATOM     11  C   UNL     1      -2.609  -1.370   4.509  1.00  0.00     0.062 A 
ATOM     12  C   UNL     1      -0.491  -0.197   4.413  1.00  0.00     0.049 A 
ATOM     13  C   UNL     1      -2.744  -1.012   5.849  1.00  0.00     0.017 A 
ATOM     14  C   UNL     1      -0.648   0.144   5.740  1.00  0.00     0.043 A 
ATOM     15  C   UNL     1      -1.771  -0.264   6.451  1.00  0.00     0.021 A 
ATOM     16  Cl  UNL     1       0.571   1.093   6.532  1.00  0.00    -0.084 Cl
BRANCH  10  17
ATOM     17  O   UNL     1      -4.628  -2.558   4.384  1.00  0.00    -0.493 OA
ATOM     18  H   UNL     1      -4.616  -3.541   4.263  1.00  0.00     0.295 HD
ENDBRANCH  10  17
ENDBRANCH   5   6
ENDBRANCH   2   5
ENDBRANCH   1   2
BRANCH   1  19
ATOM     19  C   UNL     1       0.172   0.410  -0.604  1.00  0.00     0.234 C 
ATOM     20  O   UNL     1       1.211  -0.215  -0.603  1.00  0.00    -0.274 OA
ATOM     21  N   UNL     1       0.181   1.733  -0.859  1.00  0.00    -0.344 N 
ATOM     22  H   UNL     1      -0.702   2.264  -0.860  1.00  0.00     0.164 HD
BRANCH  21  23
ATOM     23  C   UNL     1       1.447   2.417  -1.136  1.00  0.00     0.143 C 
BRANCH  23  24
ATOM     24  C   UNL     1       2.101   2.809   0.164  1.00  0.00    -0.021 A 
ATOM     25  C   UNL     1       3.469   2.683   0.316  1.00  0.00     0.006 A 
ATOM     26  C   UNL     1       1.332   3.300   1.203  1.00  0.00     0.006 A 
ATOM     27  C   UNL     1       4.068   3.043   1.509  1.00  0.00     0.000 A 
ATOM     28  C   UNL     1       1.931   3.656   2.397  1.00  0.00     0.000 A 
ATOM     29  C   UNL     1       3.299   3.530   2.549  1.00  0.00     0.000 A 
ENDBRANCH  23  24
BRANCH  23  30
ATOM     30  C   UNL     1       1.182   3.651  -1.958  1.00  0.00    -0.021 A 
ATOM     31  C   UNL     1       2.040   3.994  -2.986  1.00  0.00     0.008 A 
ATOM     32  C   UNL     1       0.079   4.438  -1.687  1.00  0.00     0.008 A 
ATOM     33  C   UNL     1       1.798   5.126  -3.741  1.00  0.00     0.021 A 
ATOM     34  C   UNL     1      -0.162   5.574  -2.437  1.00  0.00     0.021 A 
ATOM     35  C   UNL     1       0.697   5.917  -3.466  1.00  0.00     0.041 A 
ATOM     36  Cl  UNL     1       0.391   7.340  -4.414  1.00  0.00    -0.084 Cl
ENDBRANCH  23  30
ENDBRANCH  21  23
ENDBRANCH   1  19
TORSDOF 9
