REMARK SMILES C[NH+](C)C[C@H](NC(=O)C[C@@H](NS(=O)(=O)c1ccccc1)c1ccc(Cl)cc1)c1ccccc1
REMARK SMILES IDX 9 1 7 2 6 3 8 5 5 6 4 7 2 8 1 9 3 10 28 12 33 13 29 14 32 15
REMARK SMILES IDX 30 16 31 17 10 18 21 19 27 20 22 21 26 22 23 23 24 24 25 25
REMARK SMILES IDX 11 26 12 28 13 29 14 30 15 31 20 32 16 33 19 34 17 35 18 36
REMARK H PARENT 6 4 2 11 11 27
REMARK Flexibility Score: inf
ROOT
ATOM      1  C   UNL     1       3.385   4.353   2.754  1.00  0.00     0.125 C 
ENDROOT
BRANCH   1   2
ATOM      2  C   UNL     1       2.203   4.178   1.836  1.00  0.00     0.222 C 
ATOM      3  N   UNL     1       2.225   3.226   0.883  1.00  0.00    -0.344 N 
ATOM      4  H   UNL     1       3.022   2.576   0.823  1.00  0.00     0.164 HD
ATOM      5  O   UNL     1       1.232   4.895   1.955  1.00  0.00    -0.275 OA
BRANCH   3   6
ATOM      6  C   UNL     1       1.115   3.115  -0.067  1.00  0.00     0.167 C 
BRANCH   6   7
ATOM      7  C   UNL     1       1.591   3.536  -1.459  1.00  0.00     0.291 C 
BRANCH   7   8
ATOM      8  N   UNL     1       2.141   4.896  -1.397  1.00  0.00    -0.338 N 
ATOM      9  C   UNL     1       2.865   5.228  -2.632  1.00  0.00     0.332 C 
ATOM     10  C   UNL     1       1.083   5.880  -1.127  1.00  0.00     0.332 C 
ATOM     11  H   UNL     1       2.812   4.932  -0.617  1.00  0.00     0.347 HD
ENDBRANCH   7   8
ENDBRANCH   6   7
BRANCH   6  12
ATOM     12  C   UNL     1       0.633   1.687  -0.112  1.00  0.00    -0.020 A 
ATOM     13  C   UNL     1       1.544   0.649  -0.077  1.00  0.00     0.006 A 
ATOM     14  C   UNL     1      -0.721   1.417  -0.187  1.00  0.00     0.006 A 
ATOM     15  C   UNL     1       1.102  -0.660  -0.118  1.00  0.00     0.000 A 
ATOM     16  C   UNL     1      -1.163   0.108  -0.229  1.00  0.00     0.000 A 
ATOM     17  C   UNL     1      -0.251  -0.931  -0.194  1.00  0.00     0.000 A 
ENDBRANCH   6  12
ENDBRANCH   3   6
ENDBRANCH   1   2
BRANCH   1  18
ATOM     18  C   UNL     1       3.105   5.493   3.735  1.00  0.00     0.109 C 
BRANCH  18  19
ATOM     19  C   UNL     1       4.332   5.749   4.571  1.00  0.00    -0.029 A 
ATOM     20  C   UNL     1       5.175   6.799   4.258  1.00  0.00     0.007 A 
ATOM     21  C   UNL     1       4.611   4.938   5.655  1.00  0.00     0.007 A 
ATOM     22  C   UNL     1       6.301   7.034   5.024  1.00  0.00     0.021 A 
ATOM     23  C   UNL     1       5.740   5.169   6.419  1.00  0.00     0.021 A 
ATOM     24  C   UNL     1       6.584   6.219   6.106  1.00  0.00     0.041 A 
ATOM     25  Cl  UNL     1       7.998   6.515   7.069  1.00  0.00    -0.084 Cl
ENDBRANCH  18  19
BRANCH  18  26
ATOM     26  N   UNL     1       1.988   5.123   4.608  1.00  0.00    -0.203 NA
ATOM     27  H   UNL     1       1.869   4.144   4.905  1.00  0.00     0.142 HD
BRANCH  26  28
ATOM     28  S   UNL     1       0.916   6.279   5.117  1.00  0.00     0.241 S 
ATOM     29  O   UNL     1      -0.052   5.611   5.915  1.00  0.00    -0.207 OA
ATOM     30  O   UNL     1       1.692   7.363   5.608  1.00  0.00    -0.207 OA
BRANCH  28  31
ATOM     31  C   UNL     1       0.071   6.870   3.689  1.00  0.00     0.082 A 
ATOM     32  C   UNL     1      -1.099   6.260   3.276  1.00  0.00     0.022 A 
ATOM     33  C   UNL     1       0.574   7.948   2.984  1.00  0.00     0.022 A 
ATOM     34  C   UNL     1      -1.762   6.724   2.156  1.00  0.00     0.001 A 
ATOM     35  C   UNL     1      -0.086   8.408   1.861  1.00  0.00     0.001 A 
ATOM     36  C   UNL     1      -1.256   7.798   1.448  1.00  0.00     0.000 A 
ENDBRANCH  28  31
ENDBRANCH  26  28
ENDBRANCH  18  26
ENDBRANCH   1  18
TORSDOF 10
