REMARK SMILES Cc1ccc(-n2c(=O)c3ccccc3n3c(SCc4cc(-c5cccs5)on4)nnc23)cc1
REMARK SMILES IDX 18 1 17 2 16 3 6 4 31 5 7 6 15 7 30 8 8 9 9 10 14 11 29 12
REMARK SMILES IDX 10 13 13 14 11 15 12 16 5 17 1 18 2 19 33 20 3 21 32 22 4 23
REMARK SMILES IDX 19 24 28 25 20 26 27 27 21 28 22 29 26 30 23 31 25 32 24 33
REMARK H PARENT
REMARK Flexibility Score: inf
ROOT
ATOM      1  C   UNL     1       1.324   2.026   2.117  1.00  0.00     0.138 C 
ENDROOT
BRANCH   1   2
ATOM      2  S   UNL     1      -0.284   1.633   1.376  1.00  0.00    -0.079 SA
BRANCH   2   3
ATOM      3  C   UNL     1      -0.206  -0.103   1.085  1.00  0.00     0.197 A 
ATOM      4  N   UNL     1      -1.430  -3.212  -0.002  1.00  0.00    -0.244 N 
ATOM      5  C   UNL     1      -0.686  -2.157   0.504  1.00  0.00     0.244 A 
ATOM      6  C   UNL     1      -2.675  -3.014  -0.482  1.00  0.00     0.267 A 
ATOM      7  N   UNL     1      -1.190  -0.883   0.538  1.00  0.00    -0.255 N 
ATOM      8  N   UNL     1       0.521  -2.103   1.015  1.00  0.00    -0.109 NA
ATOM      9  O   UNL     1      -3.322  -3.946  -0.923  1.00  0.00    -0.268 OA
ATOM     10  C   UNL     1      -3.241  -1.653  -0.463  1.00  0.00     0.065 A 
ATOM     11  C   UNL     1      -2.462  -0.605   0.055  1.00  0.00     0.064 A 
ATOM     12  N   UNL     1       0.802  -0.896   1.357  1.00  0.00    -0.121 NA
ATOM     13  C   UNL     1      -4.522  -1.395  -0.946  1.00  0.00     0.016 A 
ATOM     14  C   UNL     1      -2.976   0.682   0.081  1.00  0.00     0.027 A 
ATOM     15  C   UNL     1      -5.016  -0.108  -0.913  1.00  0.00     0.001 A 
ATOM     16  C   UNL     1      -4.247   0.925  -0.401  1.00  0.00     0.002 A 
BRANCH   4  17
ATOM     17  C   UNL     1      -0.882  -4.500  -0.014  1.00  0.00     0.052 A 
ATOM     18  C   UNL     1       0.792  -8.432  -0.052  1.00  0.00     0.044 C 
ATOM     19  C   UNL     1       0.202  -7.045  -0.039  1.00  0.00    -0.051 A 
ATOM     20  C   UNL     1       0.386  -6.207  -1.123  1.00  0.00     0.005 A 
ATOM     21  C   UNL     1      -0.523  -6.615   1.057  1.00  0.00     0.005 A 
ATOM     22  C   UNL     1      -0.157  -4.937  -1.115  1.00  0.00     0.027 A 
ATOM     23  C   UNL     1      -1.065  -5.345   1.073  1.00  0.00     0.027 A 
ENDBRANCH   4  17
ENDBRANCH   2   3
ENDBRANCH   1   2
BRANCH   1  24
ATOM     24  C   UNL     1       1.390   3.501   2.420  1.00  0.00     0.095 A 
ATOM     25  N   UNL     1       1.030   4.086   3.528  1.00  0.00    -0.083 NA
ATOM     26  C   UNL     1       1.859   4.515   1.562  1.00  0.00     0.079 A 
ATOM     27  O   UNL     1       1.198   5.282   3.484  1.00  0.00    -0.355 OA
ATOM     28  C   UNL     1       1.710   5.663   2.299  1.00  0.00     0.177 A 
BRANCH  28  29
ATOM     29  C   UNL     1       2.046   7.032   1.880  1.00  0.00     0.073 A 
ATOM     30  S   UNL     1       2.723   7.600   0.329  1.00  0.00    -0.140 S 
ATOM     31  C   UNL     1       1.914   8.216   2.582  1.00  0.00     0.024 A 
ATOM     32  C   UNL     1       2.794   9.343   0.706  1.00  0.00     0.065 A 
ATOM     33  C   UNL     1       2.305   9.385   1.973  1.00  0.00     0.012 A 
ENDBRANCH  28  29
ENDBRANCH   1  24
TORSDOF 5
