REMARK SMILES CCOC(=O)N1CCN(C(=O)c2ccc(-n3c(-c4ccccc4)cc4c3CCCCC4)cc2)CC1
REMARK SMILES IDX 16 1 17 2 24 3 25 4 26 5 15 6 12 7 33 8 13 9 32 10 14 11
REMARK SMILES IDX 10 12 4 13 5 14 6 15 35 16 7 17 34 18 8 19 9 20 11 21 3 22
REMARK SMILES IDX 2 23 1 24 27 25 28 26 29 27 30 28 18 30 23 31 19 32 22 33
REMARK SMILES IDX 20 34 21 35 31 36
REMARK H PARENT
REMARK Flexibility Score: 90.00
ROOT
ATOM      1  N   UNL     1      -3.372   2.688   6.937  1.00  0.00    -0.313 N 
ATOM      2  C   UNL     1      -2.787   2.636   8.182  1.00  0.00     0.053 A 
ATOM      3  C   UNL     1      -3.697   3.089   9.092  1.00  0.00     0.032 A 
ATOM      4  C   UNL     1      -4.856   3.422   8.382  1.00  0.00    -0.026 A 
ATOM      5  C   UNL     1      -4.636   3.175   7.080  1.00  0.00     0.027 A 
ENDROOT
BRANCH   1   6
ATOM      6  C   UNL     1      -2.771   2.311   5.733  1.00  0.00     0.046 A 
ATOM      7  C   UNL     1      -1.579   1.563   3.345  1.00  0.00     0.040 A 
ATOM      8  C   UNL     1      -1.885   0.598   4.308  1.00  0.00     0.016 A 
ATOM      9  C   UNL     1      -1.872   2.907   3.592  1.00  0.00     0.016 A 
ATOM     10  C   UNL     1      -2.477   0.973   5.493  1.00  0.00     0.027 A 
ATOM     11  C   UNL     1      -2.469   3.274   4.777  1.00  0.00     0.027 A 
BRANCH   7  12
ATOM     12  C   UNL     1      -0.944   1.165   2.074  1.00  0.00     0.253 C 
ATOM     13  C   UNL     1      -3.042   2.646  -2.554  1.00  0.00     0.409 C 
ATOM     14  O   UNL     1      -2.445   2.395  -3.582  1.00  0.00    -0.224 OA
ATOM     15  N   UNL     1      -2.698   2.028  -1.407  1.00  0.00    -0.305 N 
ATOM     16  C   UNL     1      -3.412   2.322  -0.156  1.00  0.00     0.144 C 
ATOM     17  C   UNL     1      -1.602   1.050  -1.383  1.00  0.00     0.144 C 
ATOM     18  C   UNL     1      -2.390   2.756   0.902  1.00  0.00     0.141 C 
ATOM     19  C   UNL     1      -0.580   1.484  -0.326  1.00  0.00     0.141 C 
ATOM     20  N   UNL     1      -1.291   1.780   0.926  1.00  0.00    -0.335 N 
ATOM     21  O   UNL     1      -0.109   0.282   2.062  1.00  0.00    -0.269 OA
BRANCH  13  22
ATOM     22  O   UNL     1      -4.048   3.541  -2.562  1.00  0.00    -0.450 OA
BRANCH  22  23
ATOM     23  C   UNL     1      -4.364   4.167  -3.833  1.00  0.00     0.231 C 
ATOM     24  C   UNL     1      -5.525   5.146  -3.645  1.00  0.00     0.049 C 
ENDBRANCH  22  23
ENDBRANCH  13  22
ENDBRANCH   7  12
ENDBRANCH   1   6
BRANCH   5  25
ATOM     25  C   UNL     1      -5.659   3.395   5.978  1.00  0.00     0.055 C 
BRANCH  25  26
ATOM     26  C   UNL     1      -6.820   2.423   6.233  1.00  0.00     0.006 C 
BRANCH  26  27
ATOM     27  C   UNL     1      -7.746   2.950   7.301  1.00  0.00     0.001 C 
BRANCH  27  28
ATOM     28  C   UNL     1      -7.235   2.909   8.720  1.00  0.00     0.005 CG0
ATOM     29  G   UNL     1      -6.153   3.974   8.949  1.00  0.00     0.000 G0
ENDBRANCH  27  28
ENDBRANCH  26  27
ENDBRANCH  25  26
ENDBRANCH   5  25
BRANCH   2  30
ATOM     30  C   UNL     1      -1.415   2.172   8.480  1.00  0.00    -0.002 A 
ATOM     31  C   UNL     1      -0.451   2.140   7.471  1.00  0.00     0.010 A 
ATOM     32  C   UNL     1      -1.077   1.770   9.773  1.00  0.00     0.010 A 
ATOM     33  C   UNL     1       0.827   1.705   7.756  1.00  0.00     0.001 A 
ATOM     34  C   UNL     1       0.203   1.332  10.043  1.00  0.00     0.001 A 
ATOM     35  C   UNL     1       1.154   1.303   9.039  1.00  0.00     0.000 A 
ENDBRANCH   2  30
BRANCH   4  36
ATOM     36  C   UNL     1      -6.153   3.974   8.949  1.00  0.00     0.037 CG0
ATOM     37  G   UNL     1      -7.235   2.909   8.720  1.00  0.00     0.000 G0
ENDBRANCH   4  36
TORSDOF 5
