REMARK SMILES Cc1ccc(-c2cc3ccccc3oc2=O)cc1[N-]C(=S)NC(=O)c1ccc2c(c1)OCCO2
REMARK SMILES IDX 20 1 21 2 19 3 18 4 1 5 2 6 3 7 17 8 4 9 5 10 6 11 15 12
REMARK SMILES IDX 7 13 14 14 16 15 8 16 13 17 9 18 12 19 10 20 11 21 22 22
REMARK SMILES IDX 23 23 24 25 25 26 30 27 26 28 29 29 27 30 28 31 31 32 34 33
REMARK SMILES IDX 32 34 33 35
REMARK H PARENT 22 24
REMARK Flexibility Score: inf
ROOT
ATOM      1  C   UNL     1       4.725  -3.063   0.818  1.00  0.00     0.010 C 
ATOM      2  S   UNL     1       5.979  -2.686   1.920  1.00  0.00    -0.090 S 
ENDROOT
BRANCH   1   3
ATOM      3  N   UNL     1       4.894  -4.051  -0.083  1.00  0.00    -0.426 NA
BRANCH   3   4
ATOM      4  C   UNL     1       6.134  -4.690  -0.195  1.00  0.00    -0.037 A 
ATOM      5  C   UNL     1       4.924  -6.884  -0.302  1.00  0.00     0.044 C 
ATOM      6  C   UNL     1       6.194  -6.074  -0.304  1.00  0.00    -0.048 A 
ATOM      7  C   UNL     1       7.417  -6.710  -0.415  1.00  0.00     0.004 A 
ATOM      8  C   UNL     1       7.302  -3.943  -0.203  1.00  0.00     0.013 A 
ATOM      9  C   UNL     1       8.584  -5.974  -0.419  1.00  0.00     0.009 A 
ATOM     10  C   UNL     1       8.534  -4.584  -0.309  1.00  0.00    -0.011 A 
BRANCH  10  11
ATOM     11  C   UNL     1       9.786  -3.792  -0.312  1.00  0.00     0.068 A 
ATOM     12  C   UNL     1       9.936  -2.642  -1.207  1.00  0.00     0.344 A 
ATOM     13  C   UNL     1      10.823  -4.128   0.516  1.00  0.00     0.028 A 
ATOM     14  O   UNL     1      11.065  -1.917  -1.211  1.00  0.00    -0.422 OA
ATOM     15  O   UNL     1       9.024  -2.337  -1.952  1.00  0.00    -0.246 OA
ATOM     16  C   UNL     1      12.037  -3.312   0.473  1.00  0.00     0.018 A 
ATOM     17  C   UNL     1      12.107  -2.219  -0.407  1.00  0.00     0.138 A 
ATOM     18  C   UNL     1      13.127  -3.613   1.300  1.00  0.00     0.012 A 
ATOM     19  C   UNL     1      13.264  -1.448  -0.443  1.00  0.00     0.048 A 
ATOM     20  C   UNL     1      14.252  -2.841   1.248  1.00  0.00     0.001 A 
ATOM     21  C   UNL     1      14.325  -1.761   0.380  1.00  0.00     0.004 A 
ENDBRANCH  10  11
ENDBRANCH   3   4
ENDBRANCH   1   3
BRANCH   1  22
ATOM     22  N   UNL     1       3.568  -2.373   0.852  1.00  0.00    -0.415 N 
ATOM     23  C   UNL     1       3.398  -1.385   1.753  1.00  0.00     0.176 C 
ATOM     24  H   UNL     1       2.813  -2.600   0.189  1.00  0.00     0.030 HD
ATOM     25  O   UNL     1       4.289  -1.117   2.536  1.00  0.00    -0.294 OA
BRANCH  23  26
ATOM     26  C   UNL     1       2.132  -0.630   1.790  1.00  0.00     0.022 A 
ATOM     27  C   UNL     1       1.954   0.394   2.724  1.00  0.00     0.062 A 
ATOM     28  C   UNL     1       1.106  -0.936   0.891  1.00  0.00     0.016 A 
ATOM     29  C   UNL     1       0.765   1.100   2.756  1.00  0.00     0.162 A 
ATOM     30  C   UNL     1      -0.074  -0.229   0.928  1.00  0.00     0.051 A 
ATOM     31  C   UNL     1      -0.252   0.791   1.855  1.00  0.00     0.161 A 
ATOM     32  O   UNL     1       0.603   2.090   3.676  1.00  0.00    -0.486 OA
ATOM     33  O   UNL     1      -1.423   1.482   1.867  1.00  0.00    -0.486 OA
ATOM     34  C   UNL     1      -0.455   3.025   3.436  1.00  0.00     0.271 C 
ATOM     35  C   UNL     1      -1.713   2.236   3.049  1.00  0.00     0.271 C 
ENDBRANCH  23  26
ENDBRANCH   1  22
TORSDOF 5
