REMARK SMILES C[C@H](OC(=O)[C@]12C[C@H]3C[C@H](C[C@H](C3)C1)C2)C(=O)Nc1ncnc2nc[nH]c12
REMARK SMILES IDX 1 1 2 2 16 3 17 4 18 5 19 7 20 8 27 9 21 10 23 11 26 12
REMARK SMILES IDX 22 13 24 14 25 15 3 17 4 18 5 19 6 20 15 21 7 22 14 23 10 24
REMARK SMILES IDX 8 25 12 26 11 27 9 28 13 29
REMARK H PARENT 18 6 26 16
REMARK Flexibility Score: inf
ROOT
ATOM      1  C   UNL     1      -0.842   7.771  -1.587  1.00  0.00     0.064 C 
ATOM      2  C   UNL     1      -2.091   7.241  -0.880  1.00  0.00     0.262 C 
ENDROOT
BRANCH   2   3
ATOM      3  C   UNL     1      -3.321   7.794  -1.552  1.00  0.00     0.266 C 
ATOM      4  O   UNL     1      -4.134   7.041  -2.043  1.00  0.00    -0.270 OA
ATOM      5  N   UNL     1      -3.519   9.127  -1.605  1.00  0.00    -0.306 N 
ATOM      6  H   UNL     1      -2.828   9.767  -1.188  1.00  0.00     0.171 HD
BRANCH   5   7
ATOM      7  C   UNL     1      -4.653   9.636  -2.224  1.00  0.00     0.162 A 
ATOM      8  N   UNL     1      -5.549   8.825  -2.774  1.00  0.00    -0.217 NA
ATOM      9  C   UNL     1      -4.874  11.021  -2.289  1.00  0.00     0.128 A 
ATOM     10  C   UNL     1      -6.631   9.300  -3.364  1.00  0.00     0.226 A 
ATOM     11  C   UNL     1      -6.035  11.478  -2.938  1.00  0.00     0.182 A 
ATOM     12  N   UNL     1      -4.204  12.115  -1.854  1.00  0.00    -0.340 N 
ATOM     13  N   UNL     1      -6.877  10.590  -3.455  1.00  0.00    -0.215 NA
ATOM     14  N   UNL     1      -5.997  12.848  -2.862  1.00  0.00    -0.217 NA
ATOM     15  C   UNL     1      -4.867  13.187  -2.179  1.00  0.00     0.199 A 
ATOM     16  H   UNL     1      -3.309  12.101  -1.345  1.00  0.00     0.168 HD
ENDBRANCH   5   7
ENDBRANCH   2   3
BRANCH   2  17
ATOM     17  O   UNL     1      -2.110   5.791  -0.954  1.00  0.00    -0.452 OA
BRANCH  17  18
ATOM     18  C   UNL     1      -1.510   5.123   0.044  1.00  0.00     0.312 C 
ATOM     19  O   UNL     1      -0.986   5.729   0.949  1.00  0.00    -0.252 OA
BRANCH  18  20
ATOM     20  C   UNL     1      -1.490   3.616   0.036  1.00  0.00     0.069 C 
ATOM     21  C   UNL     1      -0.750   3.109   1.275  1.00  0.00     0.022 C 
ATOM     22  C   UNL     1      -2.925   3.086   0.047  1.00  0.00     0.022 C 
ATOM     23  C   UNL     1      -0.773   3.123  -1.223  1.00  0.00     0.022 C 
ATOM     24  C   UNL     1      -0.729   1.579   1.267  1.00  0.00    -0.009 C 
ATOM     25  C   UNL     1      -2.904   1.556   0.038  1.00  0.00    -0.009 C 
ATOM     26  C   UNL     1      -0.753   1.593  -1.232  1.00  0.00    -0.009 C 
ATOM     27  C   UNL     1      -0.013   1.086   0.008  1.00  0.00     0.007 C 
ATOM     28  C   UNL     1      -2.164   1.050   1.278  1.00  0.00     0.007 C 
ATOM     29  C   UNL     1      -2.188   1.063  -1.221  1.00  0.00     0.007 C 
ENDBRANCH  18  20
ENDBRANCH  17  18
ENDBRANCH   2  17
TORSDOF 5
