REMARK SMILES Cc1cccc(CC(=O)Nc2sc(C)c(-c3ccccc3)c2C(=O)NCc2cccnc2)c1
REMARK SMILES IDX 11 1 22 2 15 3 13 4 12 5 14 6 10 7 8 8 9 9 7 11 6 12 1 13
REMARK SMILES IDX 2 14 33 15 3 16 4 17 5 18 23 19 24 20 25 21 26 23 27 24
REMARK SMILES IDX 32 25 28 26 31 27 29 28 30 29 16 30 21 31 17 32 20 33 18 34
REMARK SMILES IDX 19 35
REMARK H PARENT 10 10 25 22
REMARK Flexibility Score: inf
ROOT
ATOM      1  C   UNL     1       1.249  -0.612  -0.013  1.00  0.00     0.109 A 
ATOM      2  C   UNL     1       0.002  -0.004   0.002  1.00  0.00     0.082 A 
ATOM      3  C   UNL     1      -0.018   1.446   0.010  1.00  0.00     0.010 A 
ATOM      4  C   UNL     1       1.187   2.073   0.002  1.00  0.00     0.012 A 
ATOM      5  S   UNL     1       2.349   0.724  -0.017  1.00  0.00    -0.122 S 
ATOM      6  C   UNL     1       1.471   3.553   0.007  1.00  0.00     0.057 C 
ENDROOT
BRANCH   1   7
ATOM      7  N   UNL     1       1.544  -1.966  -0.023  1.00  0.00    -0.317 N 
ATOM      8  C   UNL     1       2.828  -2.377  -0.038  1.00  0.00     0.229 C 
ATOM      9  O   UNL     1       3.725  -1.561  -0.042  1.00  0.00    -0.274 OA
ATOM     10  H   UNL     1       0.782  -2.659  -0.019  1.00  0.00     0.170 HD
BRANCH   8  11
ATOM     11  C   UNL     1       3.148  -3.849  -0.049  1.00  0.00     0.135 C 
BRANCH  11  12
ATOM     12  C   UNL     1       4.643  -4.038  -0.064  1.00  0.00    -0.038 A 
ATOM     13  C   UNL     1       7.471  -4.405   2.410  1.00  0.00     0.044 C 
ATOM     14  C   UNL     1       6.711  -4.304   1.112  1.00  0.00    -0.051 A 
ATOM     15  C   UNL     1       5.340  -4.131   1.126  1.00  0.00     0.007 A 
ATOM     16  C   UNL     1       7.386  -4.385  -0.092  1.00  0.00     0.003 A 
ATOM     17  C   UNL     1       6.689  -4.293  -1.282  1.00  0.00     0.001 A 
ATOM     18  C   UNL     1       5.316  -4.124  -1.268  1.00  0.00     0.004 A 
ENDBRANCH  11  12
ENDBRANCH   8  11
ENDBRANCH   1   7
BRANCH   2  19
ATOM     19  C   UNL     1      -1.235  -0.789   0.009  1.00  0.00     0.255 C 
ATOM     20  O   UNL     1      -1.758  -1.109  -1.042  1.00  0.00    -0.269 OA
ATOM     21  N   UNL     1      -1.793  -1.156   1.179  1.00  0.00    -0.348 N 
ATOM     22  H   UNL     1      -1.350  -0.885   2.069  1.00  0.00     0.164 HD
BRANCH  21  23
ATOM     23  C   UNL     1      -3.030  -1.941   1.187  1.00  0.00     0.153 C 
BRANCH  23  24
ATOM     24  C   UNL     1      -3.441  -2.218   2.610  1.00  0.00    -0.010 A 
ATOM     25  C   UNL     1      -4.270  -1.340   3.282  1.00  0.00     0.116 A 
ATOM     26  C   UNL     1      -2.997  -3.360   3.260  1.00  0.00     0.009 A 
ATOM     27  N   UNL     1      -4.634  -1.576   4.527  1.00  0.00    -0.264 NA
ATOM     28  C   UNL     1      -3.397  -3.571   4.570  1.00  0.00     0.020 A 
ATOM     29  C   UNL     1      -4.227  -2.648   5.178  1.00  0.00     0.111 A 
ENDBRANCH  23  24
ENDBRANCH  21  23
ENDBRANCH   2  19
BRANCH   3  30
ATOM     30  C   UNL     1      -1.290   2.207   0.020  1.00  0.00    -0.016 A 
ATOM     31  C   UNL     1      -1.624   2.997   1.119  1.00  0.00     0.009 A 
ATOM     32  C   UNL     1      -2.155   2.139  -1.071  1.00  0.00     0.009 A 
ATOM     33  C   UNL     1      -2.810   3.703   1.123  1.00  0.00     0.001 A 
ATOM     34  C   UNL     1      -3.340   2.845  -1.054  1.00  0.00     0.001 A 
ATOM     35  C   UNL     1      -3.666   3.628   0.039  1.00  0.00     0.000 A 
ENDBRANCH   3  30
TORSDOF 7
