REMARK SMILES C=C(C)[C@@H]1CC[C@]2(C)[C@H](CC[C@H]3[C@@H]([C@]4(C)CC[C@](C)(C(C)(C)O)O4)CC[C@]32C)[C@@]1(C)CCC(=O)[O-]
REMARK SMILES IDX 4 1 5 2 6 3 7 4 9 5 29 6 30 7 10 8 11 9 12 10 27 11 26 12
REMARK SMILES IDX 25 13 13 14 28 15 8 16 2 17 3 18 1 19 31 20 32 21 33 22
REMARK SMILES IDX 34 23 35 24 14 25 24 26 16 27 15 28 18 29 17 30 19 31 20 32
REMARK SMILES IDX 21 33 22 34 23 35
REMARK H PARENT 23 36
REMARK Flexibility Score: inf
ROOT
ATOM      1  C   UNL     1      -5.748   5.694  -4.638  1.00  0.00     0.020 C 
ATOM      2  C   UNL     1      -4.622   6.617  -4.188  1.00  0.00     0.009 C 
ATOM      3  C   UNL     1      -4.826   6.971  -2.713  1.00  0.00     0.008 C 
ATOM      4  C   UNL     1      -4.701   5.700  -1.862  1.00  0.00    -0.024 C 
ATOM      5  C   UNL     1      -5.744   4.685  -2.311  1.00  0.00     0.002 C 
ATOM      6  C   UNL     1      -5.808   4.418  -3.801  1.00  0.00    -0.022 C 
ATOM      7  C   UNL     1      -4.734   3.438  -4.274  1.00  0.00     0.012 C 
ATOM      8  C   UNL     1      -5.567   3.390  -1.514  1.00  0.00     0.005 C 
ATOM      9  C   UNL     1      -5.851   3.678  -0.040  1.00  0.00     0.005 C 
ATOM     10  C   UNL     1      -5.063   4.822   0.520  1.00  0.00     0.001 C 
ATOM     11  C   UNL     1      -4.925   6.048  -0.392  1.00  0.00    -0.024 C 
ATOM     12  C   UNL     1      -3.698   6.796   0.191  1.00  0.00     0.008 C 
ATOM     13  C   UNL     1      -2.793   5.711   0.810  1.00  0.00     0.007 C 
ATOM     14  C   UNL     1      -3.708   4.514   1.135  1.00  0.00     0.025 C 
ATOM     15  C   UNL     1      -6.188   6.935  -0.218  1.00  0.00     0.012 C 
ATOM     16  C   UNL     1      -3.288   5.148  -2.066  1.00  0.00     0.012 C 
ENDROOT
BRANCH   1  17
ATOM     17  C   UNL     1      -5.544   5.326  -6.088  1.00  0.00    -0.077 C 
ATOM     18  C   UNL     1      -4.183   4.894  -6.572  1.00  0.00     0.039 C 
ATOM     19  C   UNL     1      -6.549   5.381  -6.926  1.00  0.00     0.008 C 
ENDBRANCH   1  17
BRANCH   6  20
ATOM     20  C   UNL     1      -7.179   3.763  -4.106  1.00  0.00     0.013 C 
BRANCH  20  21
ATOM     21  C   UNL     1      -8.300   4.761  -3.808  1.00  0.00     0.053 C 
BRANCH  21  22
ATOM     22  C   UNL     1      -9.635   4.082  -3.974  1.00  0.00     0.041 C 
ATOM     23  O   UNL     1      -9.685   2.919  -4.298  1.00  0.00    -0.550 OA
ATOM     24  O   UNL     1     -10.768   4.770  -3.763  1.00  0.00    -0.550 OA
ENDBRANCH  21  22
ENDBRANCH  20  21
ENDBRANCH   6  20
BRANCH  14  25
ATOM     25  C   UNL     1      -3.093   3.209   0.643  1.00  0.00     0.069 C 
ATOM     26  O   UNL     1      -2.871   3.264  -0.783  1.00  0.00    -0.366 OA
ATOM     27  C   UNL     1      -1.685   3.012   1.255  1.00  0.00     0.038 C 
ATOM     28  C   UNL     1      -3.999   2.028   0.996  1.00  0.00     0.042 C 
ATOM     29  C   UNL     1      -1.878   2.251  -1.053  1.00  0.00     0.094 C 
ATOM     30  C   UNL     1      -0.870   2.366   0.112  1.00  0.00     0.041 C 
ATOM     31  C   UNL     1      -2.523   0.864  -1.065  1.00  0.00     0.045 C 
BRANCH  29  32
ATOM     32  C   UNL     1      -1.182   2.526  -2.388  1.00  0.00     0.088 C 
ATOM     33  C   UNL     1      -2.225   2.927  -3.433  1.00  0.00     0.045 C 
ATOM     34  C   UNL     1      -0.173   3.662  -2.212  1.00  0.00     0.045 C 
BRANCH  32  35
ATOM     35  O   UNL     1      -0.501   1.347  -2.822  1.00  0.00    -0.387 OA
ATOM     36  H   UNL     1      -1.154   0.611  -2.936  1.00  0.00     0.211 HD
ENDBRANCH  32  35
ENDBRANCH  29  32
ENDBRANCH  14  25
TORSDOF 7
