REMARK SMILES Cc1ccc(NC(=O)CCc2nnc(SCC(=O)Nc3nc(-c4ccccc4)c(C)s3)n2C)c(C)c1
REMARK SMILES IDX 11 1 12 2 13 3 14 4 32 5 33 6 10 7 9 8 7 9 6 10 8 12 5 13
REMARK SMILES IDX 1 14 2 15 36 16 3 17 34 18 4 19 35 20 15 21 16 22 17 23
REMARK SMILES IDX 18 24 19 25 20 27 31 28 21 29 29 30 22 31 30 32 23 33 28 34
REMARK SMILES IDX 24 35 27 36 25 37 26 38
REMARK H PARENT 6 11 19 26
REMARK Flexibility Score: inf
ROOT
ATOM      1  C   UNL     1      -7.206  -0.040   0.034  1.00  0.00     0.133 A 
ATOM      2  N   UNL     1      -6.313  -0.989   0.026  1.00  0.00    -0.134 NA
ATOM      3  N   UNL     1      -5.132  -0.483   0.018  1.00  0.00    -0.123 NA
ATOM      4  C   UNL     1      -5.207   0.828   0.029  1.00  0.00     0.191 A 
ATOM      5  N   UNL     1      -6.534   1.151   0.036  1.00  0.00    -0.309 N 
ATOM      6  C   UNL     1      -7.116   2.496   0.045  1.00  0.00     0.154 C 
ENDROOT
BRANCH   1   7
ATOM      7  C   UNL     1      -8.702  -0.221   0.040  1.00  0.00     0.087 C 
BRANCH   7   8
ATOM      8  C   UNL     1      -9.215  -0.276  -1.400  1.00  0.00     0.108 C 
BRANCH   8   9
ATOM      9  C   UNL     1     -10.711  -0.457  -1.394  1.00  0.00     0.224 C 
ATOM     10  N   UNL     1     -11.385  -0.533  -2.558  1.00  0.00    -0.326 N 
ATOM     11  H   UNL     1     -10.892  -0.383  -3.450  1.00  0.00     0.169 HD
ATOM     12  O   UNL     1     -11.308  -0.535  -0.341  1.00  0.00    -0.275 OA
BRANCH  10  13
ATOM     13  C   UNL     1     -12.755  -0.817  -2.556  1.00  0.00     0.044 A 
ATOM     14  C   UNL     1     -16.941  -1.683  -2.549  1.00  0.00     0.044 C 
ATOM     15  C   UNL     1     -15.465  -1.378  -2.552  1.00  0.00    -0.051 A 
ATOM     16  C   UNL     1     -14.905  -0.689  -3.612  1.00  0.00     0.009 A 
ATOM     17  C   UNL     1     -14.674  -1.787  -1.493  1.00  0.00     0.005 A 
ATOM     18  C   UNL     1     -13.553  -0.403  -3.614  1.00  0.00    -0.027 A 
ATOM     19  C   UNL     1     -13.321  -1.508  -1.493  1.00  0.00     0.026 A 
ATOM     20  C   UNL     1     -12.945   0.353  -4.767  1.00  0.00     0.046 C 
ENDBRANCH  10  13
ENDBRANCH   8   9
ENDBRANCH   7   8
ENDBRANCH   1   7
BRANCH   4  21
ATOM     21  S   UNL     1      -3.854   1.956   0.026  1.00  0.00    -0.076 SA
BRANCH  21  22
ATOM     22  C   UNL     1      -2.471   0.787   0.016  1.00  0.00     0.178 C 
BRANCH  22  23
ATOM     23  C   UNL     1      -1.171   1.548   0.012  1.00  0.00     0.236 C 
ATOM     24  O   UNL     1      -1.177   2.761   0.017  1.00  0.00    -0.274 OA
ATOM     25  N   UNL     1       0.001   0.881   0.004  1.00  0.00    -0.301 N 
ATOM     26  H   UNL     1       0.006  -0.149   0.005  1.00  0.00     0.172 HD
BRANCH  25  27
ATOM     27  C   UNL     1       1.200   1.583  -0.005  1.00  0.00     0.190 A 
ATOM     28  S   UNL     1       1.477   3.348  -0.009  1.00  0.00    -0.101 S 
ATOM     29  N   UNL     1       2.437   1.122  -0.018  1.00  0.00    -0.220 NA
ATOM     30  C   UNL     1       3.264   3.294  -0.018  1.00  0.00     0.031 A 
ATOM     31  C   UNL     1       3.476   1.943  -0.025  1.00  0.00     0.086 A 
ATOM     32  C   UNL     1       4.261   4.424  -0.024  1.00  0.00     0.059 C 
BRANCH  31  33
ATOM     33  C   UNL     1       4.857   1.402  -0.041  1.00  0.00     0.001 A 
ATOM     34  C   UNL     1       5.155   0.225   0.644  1.00  0.00     0.010 A 
ATOM     35  C   UNL     1       5.861   2.066  -0.745  1.00  0.00     0.010 A 
ATOM     36  C   UNL     1       6.442  -0.274   0.626  1.00  0.00     0.001 A 
ATOM     37  C   UNL     1       7.145   1.561  -0.751  1.00  0.00     0.001 A 
ATOM     38  C   UNL     1       7.435   0.392  -0.070  1.00  0.00     0.000 A 
ENDBRANCH  31  33
ENDBRANCH  25  27
ENDBRANCH  22  23
ENDBRANCH  21  22
ENDBRANCH   4  21
TORSDOF 9
