REMARK SMILES C[C@@H]1CCCC[C@@H]1N/C([S-])=C(/C(=O)c1ccc(C(C)(C)C)cc1)[n+]1ccc2c(c1)CCCC2
REMARK SMILES IDX 9 1 11 2 10 3 8 4 7 6 1 7 2 8 3 9 6 10 4 11 5 12 12 13 13 14
REMARK SMILES IDX 14 15 23 16 15 17 22 18 16 19 17 20 18 21 19 22 20 23 21 24
REMARK SMILES IDX 24 25 29 26 25 27 28 28 26 29 27 30 30 31 33 32 31 33 32 34
REMARK H PARENT 8 5
REMARK Flexibility Score: inf
ROOT
ATOM      1  C   UNL     1      -4.852   3.701  -0.008  1.00  0.00    -0.038 C 
ATOM      2  C   UNL     1      -3.616   3.070  -0.135  1.00  0.00     0.255 C 
ATOM      3  S   UNL     1      -4.970   5.451  -0.181  1.00  0.00    -0.756 S 
ENDROOT
BRANCH   1   4
ATOM      4  N   UNL     1      -5.974   2.962   0.251  1.00  0.00    -0.399 N 
ATOM      5  H   UNL     1      -5.906   1.940   0.352  1.00  0.00     0.158 HD
BRANCH   4   6
ATOM      6  C   UNL     1      -7.274   3.626   0.384  1.00  0.00     0.080 C 
ATOM      7  C   UNL     1      -7.579   2.578   2.632  1.00  0.00     0.010 C 
ATOM      8  C   UNL     1      -8.200   2.766   1.246  1.00  0.00     0.008 C 
ATOM      9  C   UNL     1      -8.390   1.400   0.583  1.00  0.00     0.005 C 
ATOM     10  C   UNL     1      -7.895   3.814  -1.001  1.00  0.00     0.025 C 
ATOM     11  C   UNL     1      -9.012   1.587  -0.802  1.00  0.00     0.000 C 
ATOM     12  C   UNL     1      -8.086   2.448  -1.664  1.00  0.00     0.002 C 
ENDBRANCH   4   6
ENDBRANCH   1   4
BRANCH   2  13
ATOM     13  C   UNL     1      -2.483   3.811  -0.525  1.00  0.00     0.257 C 
ATOM     14  O   UNL     1      -2.417   4.278  -1.649  1.00  0.00    -0.282 OA
BRANCH  13  15
ATOM     15  C   UNL     1      -1.373   4.024   0.431  1.00  0.00     0.029 A 
ATOM     16  C   UNL     1      -0.200   4.652   0.013  1.00  0.00     0.013 A 
ATOM     17  C   UNL     1      -1.493   3.591   1.752  1.00  0.00     0.013 A 
ATOM     18  C   UNL     1       0.832   4.847   0.908  1.00  0.00     0.005 A 
ATOM     19  C   UNL     1      -0.457   3.797   2.639  1.00  0.00     0.005 A 
ATOM     20  C   UNL     1       0.704   4.420   2.218  1.00  0.00    -0.043 A 
BRANCH  20  21
ATOM     21  C   UNL     1       1.835   4.636   3.191  1.00  0.00    -0.013 C 
ATOM     22  C   UNL     1       2.312   3.285   3.727  1.00  0.00     0.016 C 
ATOM     23  C   UNL     1       2.992   5.340   2.480  1.00  0.00     0.016 C 
ATOM     24  C   UNL     1       1.348   5.503   4.354  1.00  0.00     0.016 C 
ENDBRANCH  20  21
ENDBRANCH  13  15
ENDBRANCH   2  13
BRANCH   2  25
ATOM     25  N   UNL     1      -3.502   1.722   0.121  1.00  0.00    -0.164 N 
ATOM     26  C   UNL     1      -3.199   0.898  -0.871  1.00  0.00     0.318 A 
ATOM     27  C   UNL     1      -3.693   1.278   1.357  1.00  0.00     0.315 A 
ATOM     28  C   UNL     1      -3.074  -0.464  -0.652  1.00  0.00     0.020 A 
ATOM     29  C   UNL     1      -3.589  -0.066   1.641  1.00  0.00     0.075 A 
ATOM     30  C   UNL     1      -3.269  -0.959   0.621  1.00  0.00    -0.033 A 
ATOM     31  C   UNL     1      -2.733  -1.349  -1.821  1.00  0.00     0.042 C 
ATOM     32  C   UNL     1      -3.147  -2.420   0.954  1.00  0.00     0.036 C 
ATOM     33  C   UNL     1      -2.220  -2.704  -1.333  1.00  0.00     0.005 C 
ATOM     34  C   UNL     1      -3.221  -3.266  -0.316  1.00  0.00     0.005 C 
ENDBRANCH   2  25
TORSDOF 6
