REMARK SMILES COc1ccc(OC)c(NC(=O)[C@H]2C[C@@H](Cc3ccc(O)cc3)[NH2+][C@@]23C(=O)Nc2c(Cl)cccc23)c1
REMARK SMILES IDX 13 1 14 2 15 3 25 4 35 5 34 6 33 7 32 8 30 9 29 10 28 11
REMARK SMILES IDX 26 12 27 13 31 14 24 15 11 19 10 20 12 22 9 23 3 24 36 25
REMARK SMILES IDX 4 26 5 27 6 28 2 29 1 30 7 31 8 32 16 33 17 34 23 35 18 36
REMARK SMILES IDX 22 37 19 38 20 39 21 40
REMARK H PARENT 28 16 24 17 24 18 10 21 21 41
REMARK Flexibility Score: inf
ROOT
ATOM      1  C   UNL     1       5.408   3.923  -2.880  1.00  0.00     0.161 C 
ATOM      2  C   UNL     1       5.443   3.180  -1.523  1.00  0.00     0.086 C 
ATOM      3  C   UNL     1       4.067   2.468  -1.482  1.00  0.00     0.189 C 
ATOM      4  C   UNL     1       3.918   4.056  -3.217  1.00  0.00     0.215 C 
ATOM      5  C   UNL     1       3.599   3.390  -4.529  1.00  0.00     0.048 A 
ATOM      6  C   UNL     1       3.720   2.097  -4.986  1.00  0.00     0.013 A 
ATOM      7  C   UNL     1       3.331   1.779  -6.275  1.00  0.00     0.002 A 
ATOM      8  C   UNL     1       2.820   2.763  -7.102  1.00  0.00     0.023 A 
ATOM      9  C   UNL     1       2.697   4.060  -6.648  1.00  0.00     0.065 A 
ATOM     10  C   UNL     1       3.089   4.389  -5.351  1.00  0.00     0.070 A 
ATOM     11  N   UNL     1       3.066   5.609  -4.672  1.00  0.00    -0.318 N 
ATOM     12  C   UNL     1       3.537   5.500  -3.416  1.00  0.00     0.291 C 
ATOM     13  O   UNL     1       3.635   6.392  -2.600  1.00  0.00    -0.267 OA
ATOM     14  Cl  UNL     1       2.055   5.287  -7.696  1.00  0.00    -0.082 Cl
ATOM     15  N   UNL     1       3.174   3.444  -2.124  1.00  0.00    -0.326 N 
ATOM     16  H   UNL     1       2.727   6.490  -5.084  1.00  0.00     0.170 HD
ATOM     17  H   UNL     1       2.342   2.963  -2.495  1.00  0.00     0.347 HD
ATOM     18  H   UNL     1       2.899   4.166  -1.444  1.00  0.00     0.347 HD
ENDROOT
BRANCH   1  19
ATOM     19  C   UNL     1       6.042   5.284  -2.750  1.00  0.00     0.235 C 
ATOM     20  N   UNL     1       6.736   5.805  -3.781  1.00  0.00    -0.322 N 
ATOM     21  H   UNL     1       6.784   5.300  -4.678  1.00  0.00     0.170 HD
ATOM     22  O   UNL     1       5.927   5.910  -1.718  1.00  0.00    -0.274 OA
BRANCH  20  23
ATOM     23  C   UNL     1       7.393   7.034  -3.633  1.00  0.00     0.087 A 
ATOM     24  C   UNL     1       7.593   9.170  -2.555  1.00  0.00     0.121 A 
ATOM     25  C   UNL     1       6.941   7.955  -2.699  1.00  0.00     0.076 A 
ATOM     26  C   UNL     1       8.695   9.465  -3.344  1.00  0.00     0.050 A 
ATOM     27  C   UNL     1       9.147   8.549  -4.276  1.00  0.00     0.052 A 
ATOM     28  C   UNL     1       8.503   7.331  -4.420  1.00  0.00     0.142 A 
BRANCH  24  29
ATOM     29  O   UNL     1       7.151  10.073  -1.640  1.00  0.00    -0.497 OA
ATOM     30  C   UNL     1       7.870  11.305  -1.545  1.00  0.00     0.278 C 
ENDBRANCH  24  29
BRANCH  28  31
ATOM     31  O   UNL     1       8.951   6.428  -5.333  1.00  0.00    -0.495 OA
ATOM     32  C   UNL     1      10.095   6.799  -6.105  1.00  0.00     0.278 C 
ENDBRANCH  28  31
ENDBRANCH  20  23
ENDBRANCH   1  19
BRANCH   3  33
ATOM     33  C   UNL     1       3.646   2.191  -0.037  1.00  0.00     0.100 C 
BRANCH  33  34
ATOM     34  C   UNL     1       2.340   1.439  -0.030  1.00  0.00    -0.042 A 
ATOM     35  C   UNL     1       2.340   0.056  -0.051  1.00  0.00     0.008 A 
ATOM     36  C   UNL     1       1.144   2.132  -0.002  1.00  0.00     0.008 A 
ATOM     37  C   UNL     1       1.144  -0.635  -0.045  1.00  0.00     0.046 A 
ATOM     38  C   UNL     1      -0.054   1.445   0.005  1.00  0.00     0.046 A 
ATOM     39  C   UNL     1      -0.057   0.058  -0.017  1.00  0.00     0.115 A 
BRANCH  39  40
ATOM     40  O   UNL     1      -1.235  -0.620  -0.010  1.00  0.00    -0.508 OA
ATOM     41  H   UNL     1      -1.732  -0.275  -0.793  1.00  0.00     0.293 HD
ENDBRANCH  39  40
ENDBRANCH  33  34
ENDBRANCH   3  33
TORSDOF 7
