REMARK SMILES CC(C)(C)c1ccc(CSc2nc3cc(C(=O)N4CCC(C(N)=O)CC4)ccc3c3nc4ccccc4n23)cc1
REMARK SMILES IDX 10 1 9 2 8 3 5 4 40 5 6 6 39 7 7 8 2 9 1 10 3 11 4 12 11 13
REMARK SMILES IDX 38 14 12 15 30 16 37 17 13 18 29 19 31 20 32 21 36 22 14 23
REMARK SMILES IDX 28 24 33 25 35 26 15 27 27 28 34 29 16 30 17 31 18 32 26 33
REMARK SMILES IDX 19 34 25 35 20 36 21 37 22 38 24 39 23 40
REMARK H PARENT 23 41 23 42
REMARK Flexibility Score: inf
ROOT
ATOM      1  S   UNL     1       0.075   1.826  -1.196  1.00  0.00    -0.083 SA
ENDROOT
BRANCH   1   2
ATOM      2  C   UNL     1       0.154   0.043  -1.501  1.00  0.00     0.113 C 
BRANCH   2   3
ATOM      3  C   UNL     1      -1.209  -0.459  -1.902  1.00  0.00    -0.038 A 
ATOM      4  C   UNL     1      -3.710  -1.381  -2.638  1.00  0.00    -0.043 A 
ATOM      5  C   UNL     1      -3.346  -1.359  -1.305  1.00  0.00     0.004 A 
ATOM      6  C   UNL     1      -2.823  -0.942  -3.603  1.00  0.00     0.004 A 
ATOM      7  C   UNL     1      -2.094  -0.902  -0.937  1.00  0.00     0.005 A 
ATOM      8  C   UNL     1      -1.573  -0.481  -3.236  1.00  0.00     0.005 A 
BRANCH   4   9
ATOM      9  C   UNL     1      -5.073  -1.883  -3.039  1.00  0.00    -0.013 C 
ATOM     10  C   UNL     1      -4.919  -3.084  -3.974  1.00  0.00     0.016 C 
ATOM     11  C   UNL     1      -5.849  -2.304  -1.790  1.00  0.00     0.016 C 
ATOM     12  C   UNL     1      -5.834  -0.769  -3.761  1.00  0.00     0.016 C 
ENDBRANCH   4   9
ENDBRANCH   2   3
ENDBRANCH   1   2
BRANCH   1  13
ATOM     13  C   UNL     1       1.753   2.136  -0.758  1.00  0.00     0.175 A 
ATOM     14  N   UNL     1       2.121   3.418  -0.442  1.00  0.00    -0.271 N 
ATOM     15  N   UNL     1       2.591   1.132  -0.743  1.00  0.00    -0.224 NA
ATOM     16  C   UNL     1       3.425   3.697  -0.095  1.00  0.00     0.149 A 
ATOM     17  C   UNL     1       1.424   4.610  -0.385  1.00  0.00     0.075 A 
ATOM     18  C   UNL     1       3.899   1.291  -0.422  1.00  0.00     0.078 A 
ATOM     19  C   UNL     1       4.379   2.576  -0.080  1.00  0.00     0.044 A 
ATOM     20  N   UNL     1       3.548   4.977   0.165  1.00  0.00    -0.228 NA
ATOM     21  C   UNL     1       2.352   5.593   0.004  1.00  0.00     0.090 A 
ATOM     22  C   UNL     1       0.103   4.964  -0.621  1.00  0.00     0.029 A 
ATOM     23  C   UNL     1       4.780   0.209  -0.417  1.00  0.00     0.043 A 
ATOM     24  C   UNL     1       5.718   2.759   0.258  1.00  0.00     0.015 A 
ATOM     25  C   UNL     1       1.929   6.919   0.149  1.00  0.00     0.030 A 
ATOM     26  C   UNL     1      -0.291   6.277  -0.471  1.00  0.00     0.002 A 
ATOM     27  C   UNL     1       6.113   0.413  -0.076  1.00  0.00     0.042 A 
ATOM     28  C   UNL     1       6.572   1.693   0.260  1.00  0.00     0.015 A 
ATOM     29  C   UNL     1       0.625   7.247  -0.087  1.00  0.00     0.002 A 
BRANCH  27  30
ATOM     30  C   UNL     1       7.052  -0.729  -0.069  1.00  0.00     0.253 C 
ATOM     31  O   UNL     1       8.109  -0.651  -0.664  1.00  0.00    -0.269 OA
ATOM     32  N   UNL     1       6.736  -1.857   0.598  1.00  0.00    -0.339 N 
ATOM     33  C   UNL     1       7.693  -2.969   0.685  1.00  0.00     0.120 C 
ATOM     34  C   UNL     1       5.431  -1.996   1.258  1.00  0.00     0.120 C 
ATOM     35  C   UNL     1       7.889  -3.337   2.159  1.00  0.00     0.035 C 
ATOM     36  C   UNL     1       5.650  -2.377   2.721  1.00  0.00     0.035 C 
ATOM     37  C   UNL     1       6.528  -3.628   2.793  1.00  0.00     0.081 C 
BRANCH  37  38
ATOM     38  C   UNL     1       6.720  -4.024   4.235  1.00  0.00     0.220 C 
ATOM     39  O   UNL     1       7.836  -4.068   4.708  1.00  0.00    -0.275 OA
ATOM     40  N   UNL     1       5.652  -4.329   4.998  1.00  0.00    -0.369 N 
ATOM     41  H   UNL     1       4.704  -4.291   4.597  1.00  0.00     0.159 HD
ATOM     42  H   UNL     1       5.783  -4.599   5.984  1.00  0.00     0.159 HD
ENDBRANCH  37  38
ENDBRANCH  27  30
ENDBRANCH   1  13
TORSDOF 6
