REMARK SMILES O=C(C[C@@H]1S/C(=N\c2ccc3c(c2)OCCO3)N(C2CC2)C1=O)Nc1cccc2ccccc12
REMARK SMILES IDX 3 1 2 2 24 3 1 5 25 6 31 7 30 8 32 9 29 10 33 11 34 12 28 13
REMARK SMILES IDX 27 14 26 15 4 16 5 17 22 18 6 19 23 20 18 21 7 22 19 23
REMARK SMILES IDX 21 24 20 25 8 26 13 27 9 28 12 29 10 30 11 31 14 32 17 33
REMARK SMILES IDX 15 34 16 35
REMARK H PARENT 24 4
REMARK Flexibility Score: inf
ROOT
ATOM      1  C   UNL     1       7.098  -0.445   2.293  1.00  0.00     0.125 C 
ENDROOT
BRANCH   1   2
ATOM      2  C   UNL     1       6.652  -1.669   3.050  1.00  0.00     0.226 C 
ATOM      3  N   UNL     1       7.390  -2.796   3.002  1.00  0.00    -0.325 N 
ATOM      4  H   UNL     1       8.215  -2.847   2.388  1.00  0.00     0.169 HD
ATOM      5  O   UNL     1       5.630  -1.640   3.701  1.00  0.00    -0.275 OA
BRANCH   3   6
ATOM      6  C   UNL     1       7.036  -3.895   3.787  1.00  0.00     0.049 A 
ATOM      7  C   UNL     1       9.944  -6.517   5.263  1.00  0.00     0.001 A 
ATOM      8  C   UNL     1       8.636  -6.750   5.559  1.00  0.00     0.009 A 
ATOM      9  C   UNL     1      10.319  -5.426   4.482  1.00  0.00     0.001 A 
ATOM     10  C   UNL     1       7.646  -5.879   5.071  1.00  0.00    -0.016 A 
ATOM     11  C   UNL     1       9.388  -4.561   3.992  1.00  0.00     0.011 A 
ATOM     12  C   UNL     1       8.029  -4.770   4.277  1.00  0.00     0.005 A 
ATOM     13  C   UNL     1       6.287  -6.089   5.357  1.00  0.00     0.009 A 
ATOM     14  C   UNL     1       5.349  -5.229   4.872  1.00  0.00     0.003 A 
ATOM     15  C   UNL     1       5.713  -4.133   4.095  1.00  0.00     0.027 A 
ENDBRANCH   3   6
ENDBRANCH   1   2
BRANCH   1  16
ATOM     16  C   UNL     1       6.091   0.686   2.513  1.00  0.00     0.154 C 
ATOM     17  S   UNL     1       4.467   0.288   1.754  1.00  0.00    -0.074 SA
ATOM     18  C   UNL     1       6.469   1.923   1.715  1.00  0.00     0.242 C 
ATOM     19  C   UNL     1       4.415   1.630   0.576  1.00  0.00     0.172 C 
ATOM     20  O   UNL     1       7.506   2.522   1.907  1.00  0.00    -0.273 OA
ATOM     21  N   UNL     1       5.599   2.303   0.795  1.00  0.00    -0.287 N 
ATOM     22  N   UNL     1       3.475   1.907  -0.295  1.00  0.00    -0.224 NA
BRANCH  21  23
ATOM     23  C   UNL     1       5.901   3.484  -0.018  1.00  0.00     0.093 C 
ATOM     24  C   UNL     1       5.827   3.333  -1.538  1.00  0.00     0.028 C 
ATOM     25  C   UNL     1       4.747   4.121  -0.794  1.00  0.00     0.028 C 
ENDBRANCH  21  23
BRANCH  22  26
ATOM     26  C   UNL     1       2.359   1.115  -0.374  1.00  0.00     0.070 A 
ATOM     27  C   UNL     1       1.094   1.695  -0.463  1.00  0.00     0.078 A 
ATOM     28  C   UNL     1       2.485  -0.276  -0.366  1.00  0.00     0.032 A 
ATOM     29  C   UNL     1      -0.032   0.892  -0.543  1.00  0.00     0.163 A 
ATOM     30  C   UNL     1       1.360  -1.070  -0.448  1.00  0.00     0.052 A 
ATOM     31  C   UNL     1       0.101  -0.492  -0.537  1.00  0.00     0.161 A 
ATOM     32  O   UNL     1      -1.260   1.473  -0.620  1.00  0.00    -0.486 OA
ATOM     33  O   UNL     1      -0.995  -1.297  -0.622  1.00  0.00    -0.486 OA
ATOM     34  C   UNL     1      -2.337   0.646  -1.076  1.00  0.00     0.271 C 
ATOM     35  C   UNL     1      -2.260  -0.694  -0.331  1.00  0.00     0.271 C 
ENDBRANCH  22  26
ENDBRANCH   1  16
TORSDOF 5
