REMARK SMILES Cc1ccc(NC(=O)[C@H]2[C@H]3C(=O)N(CCC[NH+]4CCC(Cc5ccccc5)CC4)[C@H](C(=O)NC4CCCCC4)[C@]34C=C[C@H]2O4)cc1C
REMARK SMILES IDX 15 1 14 2 13 3 9 4 10 5 43 6 40 7 11 8 44 9 42 10 41 11
REMARK SMILES IDX 30 12 12 13 7 14 6 15 8 17 5 18 1 19 2 20 46 21 3 22 45 23
REMARK SMILES IDX 47 24 4 25 31 26 32 27 33 28 34 30 39 31 35 32 38 33 36 34
REMARK SMILES IDX 37 35 16 36 17 37 29 38 18 39 28 41 19 42 20 43 21 44 22 45
REMARK SMILES IDX 27 46 23 47 26 48 24 49 25 50
REMARK H PARENT 6 16 33 29 17 40
REMARK Flexibility Score: inf
ROOT
ATOM      1  C   UNL     1       5.363  -2.397   0.465  1.00  0.00     0.083 C 
ENDROOT
BRANCH   1   2
ATOM      2  C   UNL     1       4.389  -2.890  -0.607  1.00  0.00     0.126 C 
BRANCH   2   3
ATOM      3  N   UNL     1       3.302  -1.921  -0.762  1.00  0.00    -0.327 N 
ATOM      4  C   UNL     1       2.044   1.345  -1.482  1.00  0.00     0.127 C 
ATOM      5  C   UNL     1       1.983  -0.188  -1.603  1.00  0.00     0.133 C 
ATOM      6  C   UNL     1       1.489   1.575  -0.039  1.00  0.00     0.155 C 
ATOM      7  C   UNL     1       1.478  -0.569  -0.163  1.00  0.00     0.129 C 
ATOM      8  C   UNL     1       3.320  -0.875  -1.627  1.00  0.00     0.230 C 
ATOM      9  O   UNL     1       2.121   0.442   0.659  1.00  0.00    -0.359 OA
ATOM     10  C   UNL     1       0.027   1.113  -0.046  1.00  0.00     0.004 C 
ATOM     11  C   UNL     1       0.033  -0.225  -0.098  1.00  0.00     0.010 C 
ATOM     12  C   UNL     1       2.033  -1.949   0.004  1.00  0.00     0.211 C 
ATOM     13  O   UNL     1       4.266  -0.546  -2.311  1.00  0.00    -0.274 OA
BRANCH   4  14
ATOM     14  C   UNL     1       3.463   1.839  -1.599  1.00  0.00     0.231 C 
ATOM     15  N   UNL     1       3.945   2.227  -2.797  1.00  0.00    -0.326 N 
ATOM     16  H   UNL     1       3.324   2.253  -3.618  1.00  0.00     0.169 HD
ATOM     17  O   UNL     1       4.172   1.887  -0.616  1.00  0.00    -0.274 OA
BRANCH  15  18
ATOM     18  C   UNL     1       5.290   2.593  -2.925  1.00  0.00     0.041 A 
ATOM     19  C   UNL     1       9.396   3.712  -3.315  1.00  0.00     0.044 C 
ATOM     20  C   UNL     1       7.948   3.317  -3.178  1.00  0.00    -0.048 A 
ATOM     21  C   UNL     1       7.312   2.656  -4.212  1.00  0.00    -0.046 A 
ATOM     22  C   UNL     1       7.259   3.616  -2.016  1.00  0.00     0.006 A 
ATOM     23  C   UNL     1       5.985   2.293  -4.089  1.00  0.00     0.029 A 
ATOM     24  C   UNL     1       8.067   2.331  -5.475  1.00  0.00     0.044 C 
ATOM     25  C   UNL     1       5.930   3.261  -1.889  1.00  0.00     0.026 A 
ENDBRANCH  15  18
ENDBRANCH   4  14
BRANCH  12  26
ATOM     26  C   UNL     1       1.089  -2.972  -0.574  1.00  0.00     0.246 C 
ATOM     27  O   UNL     1       1.298  -3.437  -1.675  1.00  0.00    -0.273 OA
ATOM     28  N   UNL     1       0.012  -3.370   0.132  1.00  0.00    -0.351 N 
ATOM     29  H   UNL     1      -0.166  -2.975   1.066  1.00  0.00     0.163 HD
BRANCH  28  30
ATOM     30  C   UNL     1      -0.906  -4.364  -0.431  1.00  0.00     0.082 C 
ATOM     31  C   UNL     1      -1.629  -5.090   0.705  1.00  0.00     0.025 C 
ATOM     32  C   UNL     1      -1.932  -3.663  -1.323  1.00  0.00     0.025 C 
ATOM     33  C   UNL     1      -2.587  -6.129   0.118  1.00  0.00     0.002 C 
ATOM     34  C   UNL     1      -2.891  -4.701  -1.910  1.00  0.00     0.002 C 
ATOM     35  C   UNL     1      -3.614  -5.428  -0.774  1.00  0.00     0.000 C 
ENDBRANCH  28  30
ENDBRANCH  12  26
ENDBRANCH   2   3
ENDBRANCH   1   2
BRANCH   1  36
ATOM     36  C   UNL     1       6.499  -3.409   0.627  1.00  0.00     0.264 C 
BRANCH  36  37
ATOM     37  N   UNL     1       7.434  -2.935   1.655  1.00  0.00    -0.335 N 
ATOM     38  C   UNL     1       8.402  -3.981   2.009  1.00  0.00     0.262 C 
ATOM     39  C   UNL     1       6.713  -2.457   2.842  1.00  0.00     0.262 C 
ATOM     40  H   UNL     1       7.959  -2.140   1.265  1.00  0.00     0.348 HD
ATOM     41  C   UNL     1       9.446  -3.409   2.971  1.00  0.00     0.065 C 
ATOM     42  C   UNL     1       7.706  -1.839   3.829  1.00  0.00     0.065 C 
ATOM     43  C   UNL     1       8.743  -2.892   4.229  1.00  0.00     0.004 C 
BRANCH  43  44
ATOM     44  C   UNL     1       9.774  -2.263   5.169  1.00  0.00     0.039 C 
BRANCH  44  45
ATOM     45  C   UNL     1       9.102  -1.866   6.458  1.00  0.00    -0.048 A 
ATOM     46  C   UNL     1       9.035  -2.763   7.507  1.00  0.00     0.004 A 
ATOM     47  C   UNL     1       8.559  -0.602   6.593  1.00  0.00     0.004 A 
ATOM     48  C   UNL     1       8.419  -2.398   8.690  1.00  0.00     0.000 A 
ATOM     49  C   UNL     1       7.939  -0.239   7.774  1.00  0.00     0.000 A 
ATOM     50  C   UNL     1       7.871  -1.137   8.823  1.00  0.00     0.000 A 
ENDBRANCH  44  45
ENDBRANCH  43  44
ENDBRANCH  36  37
ENDBRANCH   1  36
TORSDOF 10
