REMARK SMILES CC[NH+]1CCN(C[C@@H](O)CN2CCn3c4c(c5cc(C6CCCCC6)ccc53)CCC[C@@H]42)CC1
REMARK SMILES IDX 8 1 7 2 6 3 3 4 4 5 34 6 5 8 33 9 2 10 1 11 10 12 11 13
REMARK SMILES IDX 12 14 32 15 13 16 15 17 31 18 14 19 16 20 30 21 28 22 17 23
REMARK SMILES IDX 29 24 27 25 18 26 26 27 19 28 20 29 25 30 21 31 24 32 22 33
REMARK SMILES IDX 23 34 9 35
REMARK H PARENT 3 7 9 36
REMARK Flexibility Score: inf
ROOT
ATOM      1  C   UNL     1      -0.721   1.435   1.216  1.00  0.00     0.142 C 
ENDROOT
BRANCH   1   2
ATOM      2  C   UNL     1      -0.002   0.789   2.401  1.00  0.00     0.118 C 
BRANCH   2   3
ATOM      3  N   UNL     1      -0.950   0.683   3.531  1.00  0.00    -0.290 NA
ATOM      4  N   UNL     1      -2.140  -0.696   5.726  1.00  0.00    -0.333 N 
ATOM      5  C   UNL     1      -2.881  -0.495   4.463  1.00  0.00     0.277 C 
ATOM      6  C   UNL     1      -1.211   0.431   5.951  1.00  0.00     0.277 C 
ATOM      7  H   UNL     1      -1.599  -1.570   5.662  1.00  0.00     0.348 HD
ATOM      8  C   UNL     1      -1.879  -0.444   3.307  1.00  0.00     0.146 C 
ATOM      9  C   UNL     1      -0.209   0.482   4.795  1.00  0.00     0.146 C 
BRANCH   4  10
ATOM     10  C   UNL     1      -3.088  -0.802   6.856  1.00  0.00     0.258 C 
ATOM     11  C   UNL     1      -2.319  -1.231   8.108  1.00  0.00     0.071 C 
ENDBRANCH   4  10
ENDBRANCH   2   3
ENDBRANCH   1   2
BRANCH   1  12
ATOM     12  C   UNL     1       0.214   1.464   0.005  1.00  0.00     0.118 C 
BRANCH  12  13
ATOM     13  N   UNL     1      -0.549   1.928  -1.173  1.00  0.00    -0.290 NA
ATOM     14  C   UNL     1      -0.687   3.399  -1.139  1.00  0.00     0.107 C 
ATOM     15  C   UNL     1       0.143   1.516  -2.421  1.00  0.00     0.104 C 
ATOM     16  C   UNL     1      -1.760   3.863  -2.131  1.00  0.00     0.138 C 
ATOM     17  C   UNL     1      -0.632   2.173  -3.540  1.00  0.00     0.039 A 
ATOM     18  C   UNL     1       0.049   0.009  -2.601  1.00  0.00     0.026 C 
ATOM     19  N   UNL     1      -1.484   3.236  -3.433  1.00  0.00    -0.342 N 
ATOM     20  C   UNL     1      -0.561   1.732  -4.812  1.00  0.00    -0.018 A 
ATOM     21  C   UNL     1       0.129  -0.500  -4.019  1.00  0.00     0.007 C 
ATOM     22  C   UNL     1      -1.969   3.531  -4.672  1.00  0.00     0.049 A 
ATOM     23  C   UNL     1      -1.413   2.590  -5.590  1.00  0.00     0.003 A 
ATOM     24  C   UNL     1       0.300   0.538  -5.119  1.00  0.00     0.038 C 
ATOM     25  C   UNL     1      -2.843   4.520  -5.119  1.00  0.00     0.027 A 
ATOM     26  C   UNL     1      -1.736   2.637  -6.950  1.00  0.00     0.014 A 
ATOM     27  C   UNL     1      -3.139   4.539  -6.470  1.00  0.00     0.006 A 
ATOM     28  C   UNL     1      -2.600   3.621  -7.356  1.00  0.00    -0.044 A 
BRANCH  28  29
ATOM     29  C   UNL     1      -2.976   3.706  -8.813  1.00  0.00     0.019 C 
ATOM     30  C   UNL     1      -4.490   3.539  -8.960  1.00  0.00     0.008 C 
ATOM     31  C   UNL     1      -2.557   5.069  -9.369  1.00  0.00     0.008 C 
ATOM     32  C   UNL     1      -4.871   3.626 -10.440  1.00  0.00     0.001 C 
ATOM     33  C   UNL     1      -2.938   5.155 -10.848  1.00  0.00     0.001 C 
ATOM     34  C   UNL     1      -4.452   4.988 -10.995  1.00  0.00     0.000 C 
ENDBRANCH  28  29
ENDBRANCH  12  13
ENDBRANCH   1  12
BRANCH   1  35
ATOM     35  O   UNL     1      -1.099   2.770   1.558  1.00  0.00    -0.390 OA
ATOM     36  H   UNL     1      -0.290   3.296   1.779  1.00  0.00     0.211 HD
ENDBRANCH   1  35
TORSDOF 7
