REMARK SMILES Cc1ccc(S(=O)(=O)Oc2ccc3c(c2)O[C@@H](c2ccccc2)C[C@]32CC(C)(C)NC(=S)N2)cc1
REMARK SMILES IDX 9 1 6 2 7 3 8 4 5 5 1 6 2 7 35 8 3 9 34 10 4 11 10 12 15 13
REMARK SMILES IDX 11 14 14 15 12 16 13 17 16 18 25 19 17 20 24 21 33 22 26 23
REMARK SMILES IDX 31 24 27 26 30 27 32 28 28 29 29 30 18 32 23 33 19 34 22 35
REMARK SMILES IDX 20 36 21 37
REMARK H PARENT 33 25 30 31
REMARK Flexibility Score: inf
ROOT
ATOM      1  O   UNL     1       7.535   2.958   0.868  1.00  0.00    -0.379 OA
ENDROOT
BRANCH   1   2
ATOM      2  S   UNL     1       7.526   4.227   1.708  1.00  0.00     0.339 S 
ATOM      3  O   UNL     1       8.882   4.623   1.861  1.00  0.00    -0.181 OA
ATOM      4  O   UNL     1       6.542   5.081   1.143  1.00  0.00    -0.181 OA
BRANCH   2   5
ATOM      5  C   UNL     1       6.946   3.784   3.312  1.00  0.00     0.106 A 
ATOM      6  C   UNL     1       5.542   2.711   7.201  1.00  0.00     0.044 C 
ATOM      7  C   UNL     1       6.037   3.090   5.829  1.00  0.00    -0.051 A 
ATOM      8  C   UNL     1       5.140   3.486   4.855  1.00  0.00     0.005 A 
ATOM      9  C   UNL     1       7.389   3.043   5.545  1.00  0.00     0.005 A 
ATOM     10  C   UNL     1       5.595   3.837   3.598  1.00  0.00     0.024 A 
ATOM     11  C   UNL     1       7.844   3.390   4.287  1.00  0.00     0.024 A 
ENDBRANCH   2   5
ENDBRANCH   1   2
BRANCH   1  12
ATOM     12  C   UNL     1       6.302   2.551   0.467  1.00  0.00     0.146 A 
ATOM     13  C   UNL     1       5.777   3.003  -0.731  1.00  0.00     0.095 A 
ATOM     14  C   UNL     1       5.567   1.681   1.261  1.00  0.00     0.049 A 
ATOM     15  C   UNL     1       4.515   2.586  -1.145  1.00  0.00     0.129 A 
ATOM     16  C   UNL     1       4.314   1.271   0.852  1.00  0.00     0.014 A 
ATOM     17  C   UNL     1       3.789   1.721  -0.347  1.00  0.00     0.020 A 
ATOM     18  O   UNL     1       4.041   3.052  -2.328  1.00  0.00    -0.485 OA
ATOM     19  C   UNL     1       2.409   1.246  -0.757  1.00  0.00     0.074 C 
ATOM     20  C   UNL     1       2.658   2.866  -2.630  1.00  0.00     0.206 C 
ATOM     21  C   UNL     1       2.271   1.427  -2.270  1.00  0.00     0.083 C 
ATOM     22  N   UNL     1       2.299  -0.174  -0.427  1.00  0.00    -0.353 N 
ATOM     23  C   UNL     1       1.375   2.065   0.000  1.00  0.00     0.061 C 
ATOM     24  C   UNL     1       1.114  -0.731  -0.145  1.00  0.00     0.167 C 
ATOM     25  H   UNL     1       3.148  -0.757  -0.411  1.00  0.00     0.163 HD
ATOM     26  C   UNL     1      -0.018   1.453   0.010  1.00  0.00     0.036 C 
ATOM     27  N   UNL     1       0.002  -0.004   0.002  1.00  0.00    -0.358 N 
ATOM     28  S   UNL     1       1.018  -2.433   0.009  1.00  0.00    -0.041 S 
ATOM     29  C   UNL     1      -0.834   1.965  -1.183  1.00  0.00     0.034 C 
ATOM     30  C   UNL     1      -0.736   1.910   1.296  1.00  0.00     0.034 C 
ATOM     31  H   UNL     1      -0.892  -0.502   0.116  1.00  0.00     0.163 HD
BRANCH  20  32
ATOM     32  C   UNL     1       2.429   3.097  -4.102  1.00  0.00    -0.008 A 
ATOM     33  C   UNL     1       1.289   3.752  -4.529  1.00  0.00     0.007 A 
ATOM     34  C   UNL     1       3.361   2.658  -5.023  1.00  0.00     0.007 A 
ATOM     35  C   UNL     1       1.079   3.963  -5.879  1.00  0.00     0.000 A 
ATOM     36  C   UNL     1       3.148   2.864  -6.373  1.00  0.00     0.000 A 
ATOM     37  C   UNL     1       2.008   3.519  -6.801  1.00  0.00     0.000 A 
ENDBRANCH  20  32
ENDBRANCH   1  12
TORSDOF 4
