REMARK SMILES CN(C)c1nc2cc(C(=O)OCC(=O)NC(=O)NC3CCCC3)sc2n1-c1ccccc1
REMARK SMILES IDX 11 1 9 2 10 3 8 4 4 5 26 6 5 7 25 8 6 9 24 10 7 11 2 12 1 13
REMARK SMILES IDX 3 14 27 15 32 16 28 17 31 18 29 19 30 20 12 21 13 22 14 23
REMARK SMILES IDX 15 24 16 25 17 27 18 28 19 30 23 31 20 32 22 33 21 34
REMARK H PARENT 15 26 18 29
REMARK Flexibility Score: inf
ROOT
ATOM      1  O   UNL     1       0.146   1.568   8.316  1.00  0.00    -0.451 OA
ENDROOT
BRANCH   1   2
ATOM      2  C   UNL     1       0.362   0.895   9.465  1.00  0.00     0.348 C 
ATOM      3  O   UNL     1       0.894  -0.199   9.439  1.00  0.00    -0.245 OA
BRANCH   2   4
ATOM      4  C   UNL     1      -0.042   1.480  10.742  1.00  0.00     0.116 A 
ATOM      5  C   UNL     1      -1.006   2.635  14.994  1.00  0.00     0.211 A 
ATOM      6  N   UNL     1      -1.334   3.509  13.991  1.00  0.00    -0.270 N 
ATOM      7  N   UNL     1      -0.444   1.575  14.482  1.00  0.00    -0.212 NA
ATOM      8  C   UNL     1      -0.945   2.936  12.818  1.00  0.00     0.129 A 
ATOM      9  C   UNL     1      -0.371   1.695  13.106  1.00  0.00     0.103 A 
ATOM     10  S   UNL     1      -0.832   3.051  11.052  1.00  0.00    -0.108 S 
ATOM     11  C   UNL     1       0.084   0.956  12.012  1.00  0.00     0.058 A 
BRANCH   5  12
ATOM     12  N   UNL     1      -1.235   2.844  16.342  1.00  0.00    -0.348 N 
ATOM     13  C   UNL     1      -2.171   1.847  16.878  1.00  0.00     0.146 C 
ATOM     14  C   UNL     1       0.025   2.843  17.096  1.00  0.00     0.146 C 
ENDBRANCH   5  12
BRANCH   6  15
ATOM     15  C   UNL     1      -1.953   4.757  14.143  1.00  0.00     0.050 A 
ATOM     16  C   UNL     1      -3.233   4.963  13.646  1.00  0.00     0.027 A 
ATOM     17  C   UNL     1      -1.290   5.788  14.794  1.00  0.00     0.027 A 
ATOM     18  C   UNL     1      -3.841   6.194  13.798  1.00  0.00     0.002 A 
ATOM     19  C   UNL     1      -1.901   7.018  14.939  1.00  0.00     0.002 A 
ATOM     20  C   UNL     1      -3.176   7.221  14.444  1.00  0.00     0.000 A 
ENDBRANCH   6  15
ENDBRANCH   2   4
ENDBRANCH   1   2
BRANCH   1  21
ATOM     21  C   UNL     1       0.567   0.936   7.105  1.00  0.00     0.333 C 
BRANCH  21  22
ATOM     22  C   UNL     1       0.246   1.830   5.935  1.00  0.00     0.266 C 
ATOM     23  O   UNL     1      -0.290   2.901   6.119  1.00  0.00    -0.271 OA
ATOM     24  N   UNL     1       0.555   1.437   4.683  1.00  0.00    -0.275 N 
ATOM     25  C   UNL     1       0.268   2.236   3.636  1.00  0.00     0.321 C 
ATOM     26  H   UNL     1       1.011   0.527   4.526  1.00  0.00     0.174 HD
ATOM     27  O   UNL     1      -0.269   3.311   3.821  1.00  0.00    -0.248 OA
ATOM     28  N   UNL     1       0.577   1.844   2.384  1.00  0.00    -0.335 N 
ATOM     29  H   UNL     1       1.033   0.933   2.228  1.00  0.00     0.165 HD
BRANCH  28  30
ATOM     30  C   UNL     1       0.266   2.712   1.246  1.00  0.00     0.083 C 
ATOM     31  C   UNL     1      -1.135   2.381   0.664  1.00  0.00     0.025 C 
ATOM     32  C   UNL     1       1.206   2.413   0.053  1.00  0.00     0.025 C 
ATOM     33  C   UNL     1      -1.067   2.879  -0.794  1.00  0.00     0.002 C 
ATOM     34  C   UNL     1       0.422   2.899  -1.183  1.00  0.00     0.002 C 
ENDBRANCH  28  30
ENDBRANCH  21  22
ENDBRANCH   1  21
TORSDOF 7
