REMARK SMILES c1ccc([C@H](C[NH+]2CCCC2)Nc2nc(CN3CCOCC3)nc3sc4c(c23)CCC4)cc1
REMARK SMILES IDX 12 1 5 3 4 4 1 5 33 6 2 7 32 8 3 9 6 10 7 11 11 12 8 13
REMARK SMILES IDX 10 15 9 16 13 17 14 18 28 19 15 20 24 21 27 22 23 23 25 24
REMARK SMILES IDX 29 25 26 26 30 27 31 28 16 29 17 30 22 31 18 32 21 33 19 34
REMARK SMILES IDX 20 35
REMARK H PARENT 12 2 7 14
REMARK Flexibility Score: inf
ROOT
ATOM      1  N   UNL     1      -0.725   2.943   1.450  1.00  0.00    -0.357 N 
ATOM      2  H   UNL     1      -0.320   3.551   0.723  1.00  0.00     0.163 HD
ENDROOT
BRANCH   1   3
ATOM      3  C   UNL     1      -0.461   1.502   1.429  1.00  0.00     0.166 C 
BRANCH   3   4
ATOM      4  C   UNL     1       0.725   1.196   2.307  1.00  0.00    -0.020 A 
ATOM      5  C   UNL     1       2.901   0.633   3.917  1.00  0.00     0.000 A 
ATOM      6  C   UNL     1       2.907   1.759   3.115  1.00  0.00     0.000 A 
ATOM      7  C   UNL     1       1.806  -0.211   3.914  1.00  0.00     0.000 A 
ATOM      8  C   UNL     1       1.821   2.037   2.306  1.00  0.00     0.006 A 
ATOM      9  C   UNL     1       0.719   0.070   3.109  1.00  0.00     0.006 A 
ENDBRANCH   3   4
BRANCH   3  10
ATOM     10  C   UNL     1      -0.162   1.059  -0.005  1.00  0.00     0.292 C 
BRANCH  10  11
ATOM     11  N   UNL     1      -0.007  -0.402  -0.044  1.00  0.00    -0.333 N 
ATOM     12  C   UNL     1       0.185  -0.877  -1.431  1.00  0.00     0.262 C 
ATOM     13  C   UNL     1      -1.233  -1.080   0.450  1.00  0.00     0.262 C 
ATOM     14  H   UNL     1       0.808  -0.622   0.546  1.00  0.00     0.348 HD
ATOM     15  C   UNL     1      -0.497  -2.254  -1.535  1.00  0.00     0.067 C 
ATOM     16  C   UNL     1      -1.110  -2.508  -0.139  1.00  0.00     0.067 C 
ENDBRANCH  10  11
ENDBRANCH   3  10
ENDBRANCH   1   3
BRANCH   1  17
ATOM     17  C   UNL     1      -1.517   3.486   2.444  1.00  0.00     0.139 A 
ATOM     18  N   UNL     1      -2.047   2.714   3.379  1.00  0.00    -0.214 NA
ATOM     19  C   UNL     1      -1.780   4.884   2.475  1.00  0.00     0.057 A 
ATOM     20  C   UNL     1      -2.804   3.199   4.347  1.00  0.00     0.146 A 
ATOM     21  C   UNL     1      -2.598   5.326   3.530  1.00  0.00     0.129 A 
ATOM     22  C   UNL     1      -1.308   5.924   1.546  1.00  0.00    -0.021 A 
ATOM     23  N   UNL     1      -3.082   4.486   4.426  1.00  0.00    -0.220 NA
ATOM     24  S   UNL     1      -2.708   7.074   3.257  1.00  0.00    -0.120 S 
ATOM     25  C   UNL     1      -0.434   5.932   0.289  1.00  0.00     0.038 C 
ATOM     26  C   UNL     1      -1.699   7.184   1.796  1.00  0.00     0.011 A 
ATOM     27  C   UNL     1      -0.001   7.399   0.097  1.00  0.00     0.010 C 
ATOM     28  C   UNL     1      -1.155   8.159   0.787  1.00  0.00     0.047 C 
BRANCH  20  29
ATOM     29  C   UNL     1      -3.368   2.260   5.382  1.00  0.00     0.162 C 
BRANCH  29  30
ATOM     30  N   UNL     1      -4.673   1.761   4.929  1.00  0.00    -0.291 NA
ATOM     31  C   UNL     1      -5.146   0.667   5.790  1.00  0.00     0.113 C 
ATOM     32  C   UNL     1      -5.663   2.846   4.875  1.00  0.00     0.113 C 
ATOM     33  C   UNL     1      -6.477   0.138   5.250  1.00  0.00     0.175 C 
ATOM     34  C   UNL     1      -6.989   2.295   4.343  1.00  0.00     0.175 C 
ATOM     35  O   UNL     1      -7.417   1.213   5.175  1.00  0.00    -0.379 OA
ENDBRANCH  29  30
ENDBRANCH  20  29
ENDBRANCH   1  17
TORSDOF 7
