REMARK SMILES CC[NH+](CC)CCCN1C(=O)C(=O)/C(=C(/[O-])c2c(C)[nH]c(C(=O)OC)c2C)[C@H]1c1ccc(C(C)(C)C)cc1
REMARK SMILES IDX 8 1 7 2 6 3 3 4 2 6 1 7 4 8 5 9 9 10 10 11 28 12 12 13 11 14
REMARK SMILES IDX 14 15 13 16 15 17 16 18 29 19 38 20 30 21 37 22 31 23 32 24
REMARK SMILES IDX 33 25 34 26 35 27 36 28 17 29 18 30 26 31 20 32 19 33 21 34
REMARK SMILES IDX 27 35 22 37 23 38 24 39 25 40
REMARK H PARENT 3 5 20 36
REMARK Flexibility Score: inf
ROOT
ATOM      1  C   UNL     1       5.198  -1.018  -0.254  1.00  0.00     0.127 C 
ENDROOT
BRANCH   1   2
ATOM      2  C   UNL     1       5.812  -1.153   1.141  1.00  0.00     0.083 C 
BRANCH   2   3
ATOM      3  C   UNL     1       7.315  -0.873   1.065  1.00  0.00     0.264 C 
BRANCH   3   4
ATOM      4  N   UNL     1       7.865  -0.867   2.437  1.00  0.00    -0.335 N 
ATOM      5  H   UNL     1       7.214  -0.363   3.056  1.00  0.00     0.348 HD
BRANCH   4   6
ATOM      6  C   UNL     1       8.017  -2.253   2.926  1.00  0.00     0.258 C 
ATOM      7  C   UNL     1       8.372  -2.216   4.414  1.00  0.00     0.071 C 
ENDBRANCH   4   6
BRANCH   4   8
ATOM      8  C   UNL     1       9.173  -0.179   2.454  1.00  0.00     0.258 C 
ATOM      9  C   UNL     1       8.933   1.331   2.402  1.00  0.00     0.071 C 
ENDBRANCH   4   8
ENDBRANCH   3   4
ENDBRANCH   2   3
ENDBRANCH   1   2
BRANCH   1  10
ATOM     10  N   UNL     1       3.747  -1.201  -0.168  1.00  0.00    -0.324 N 
ATOM     11  C   UNL     1       3.107  -2.382  -0.175  1.00  0.00     0.295 C 
ATOM     12  C   UNL     1       2.758  -0.125  -0.060  1.00  0.00     0.150 C 
ATOM     13  C   UNL     1       1.639  -2.167  -0.066  1.00  0.00     0.248 C 
ATOM     14  O   UNL     1       3.647  -3.466  -0.255  1.00  0.00    -0.265 OA
ATOM     15  C   UNL     1       1.401  -0.789   0.001  1.00  0.00     0.025 C 
ATOM     16  O   UNL     1       0.789  -3.040  -0.041  1.00  0.00    -0.283 OA
ATOM     17  C   UNL     1       0.173  -0.161   0.107  1.00  0.00    -0.090 C 
ATOM     18  O   UNL     1       0.106   1.186   0.168  1.00  0.00    -0.872 OA
BRANCH  12  19
ATOM     19  C   UNL     1       2.998   0.674   1.196  1.00  0.00    -0.021 A 
ATOM     20  C   UNL     1       3.019   2.055   1.143  1.00  0.00     0.006 A 
ATOM     21  C   UNL     1       3.191   0.025   2.401  1.00  0.00     0.006 A 
ATOM     22  C   UNL     1       3.239   2.788   2.294  1.00  0.00     0.004 A 
ATOM     23  C   UNL     1       3.416   0.758   3.552  1.00  0.00     0.004 A 
ATOM     24  C   UNL     1       3.438   2.139   3.499  1.00  0.00    -0.043 A 
BRANCH  24  25
ATOM     25  C   UNL     1       3.677   2.937   4.754  1.00  0.00    -0.013 C 
ATOM     26  C   UNL     1       2.474   3.846   5.018  1.00  0.00     0.016 C 
ATOM     27  C   UNL     1       3.865   1.984   5.937  1.00  0.00     0.016 C 
ATOM     28  C   UNL     1       4.934   3.792   4.583  1.00  0.00     0.016 C 
ENDBRANCH  24  25
ENDBRANCH  12  19
BRANCH  17  29
ATOM     29  C   UNL     1      -1.059  -0.961   0.154  1.00  0.00    -0.009 A 
ATOM     30  C   UNL     1      -1.611  -1.685  -0.891  1.00  0.00     0.019 A 
ATOM     31  C   UNL     1      -1.902  -1.142   1.275  1.00  0.00    -0.012 A 
ATOM     32  N   UNL     1      -2.733  -2.276  -0.449  1.00  0.00    -0.353 N 
ATOM     33  C   UNL     1      -1.049  -1.792  -2.285  1.00  0.00     0.065 C 
ATOM     34  C   UNL     1      -2.927  -1.949   0.877  1.00  0.00     0.128 A 
ATOM     35  C   UNL     1      -1.707  -0.552   2.648  1.00  0.00     0.047 C 
ATOM     36  H   UNL     1      -3.351  -2.878  -1.011  1.00  0.00     0.166 HD
BRANCH  34  37
ATOM     37  C   UNL     1      -4.041  -2.399   1.717  1.00  0.00     0.354 C 
ATOM     38  O   UNL     1      -4.108  -2.045   2.879  1.00  0.00    -0.244 OA
BRANCH  37  39
ATOM     39  O   UNL     1      -4.992  -3.205   1.202  1.00  0.00    -0.464 OA
ATOM     40  C   UNL     1      -6.065  -3.611   2.092  1.00  0.00     0.282 C 
ENDBRANCH  37  39
ENDBRANCH  34  37
ENDBRANCH  17  29
ENDBRANCH   1  10
TORSDOF 11
