REMARK SMILES COc1cc(C[NH2+]Cc2cnc(SC)nc2N2CCN(c3ccc(F)cc3)CC2)cc(OC)c1
REMARK SMILES IDX 7 1 6 4 5 5 3 6 34 7 4 8 31 9 30 10 2 11 1 12 32 13 33 14
REMARK SMILES IDX 8 15 9 16 16 17 10 18 15 19 11 20 12 21 17 22 29 23 18 24
REMARK SMILES IDX 28 25 19 26 20 27 21 28 27 29 22 30 26 31 23 32 24 33 25 34
REMARK SMILES IDX 13 35 14 36
REMARK H PARENT 7 2 7 3
REMARK Flexibility Score: inf
ROOT
ATOM      1  N   UNL     1      -0.947   7.082  -2.887  1.00  0.00    -0.339 N 
ATOM      2  H   UNL     1      -0.945   6.550  -2.005  1.00  0.00     0.346 HD
ATOM      3  H   UNL     1      -1.499   7.942  -2.755  1.00  0.00     0.346 HD
ENDROOT
BRANCH   1   4
ATOM      4  C   UNL     1      -1.562   6.268  -3.944  1.00  0.00     0.297 C 
BRANCH   4   5
ATOM      5  C   UNL     1      -2.974   5.919  -3.550  1.00  0.00     0.013 A 
ATOM      6  C   UNL     1      -5.317   6.434  -3.544  1.00  0.00     0.123 A 
ATOM      7  C   UNL     1      -5.571   5.276  -2.826  1.00  0.00     0.092 A 
ATOM      8  C   UNL     1      -4.016   6.754  -3.906  1.00  0.00     0.056 A 
ATOM      9  C   UNL     1      -4.524   4.439  -2.471  1.00  0.00     0.123 A 
ATOM     10  C   UNL     1      -3.225   4.761  -2.839  1.00  0.00     0.056 A 
BRANCH   6  11
ATOM     11  O   UNL     1      -6.342   7.256  -3.893  1.00  0.00    -0.497 OA
ATOM     12  C   UNL     1      -7.655   6.865  -3.488  1.00  0.00     0.278 C 
ENDBRANCH   6  11
BRANCH   9  13
ATOM     13  O   UNL     1      -4.770   3.304  -1.766  1.00  0.00    -0.497 OA
ATOM     14  C   UNL     1      -6.131   3.033  -1.426  1.00  0.00     0.278 C 
ENDBRANCH   9  13
ENDBRANCH   4   5
ENDBRANCH   1   4
BRANCH   1  15
ATOM     15  C   UNL     1       0.434   7.443  -3.237  1.00  0.00     0.303 C 
BRANCH  15  16
ATOM     16  C   UNL     1       0.987   8.381  -2.196  1.00  0.00     0.067 A 
ATOM     17  C   UNL     1       1.431   7.898  -0.962  1.00  0.00     0.142 A 
ATOM     18  C   UNL     1       1.068   9.739  -2.439  1.00  0.00     0.127 A 
ATOM     19  N   UNL     1       1.908   8.757  -0.067  1.00  0.00    -0.205 NA
ATOM     20  N   UNL     1       1.560  10.537  -1.504  1.00  0.00    -0.230 NA
ATOM     21  C   UNL     1       1.973  10.051  -0.342  1.00  0.00     0.189 A 
BRANCH  17  22
ATOM     22  N   UNL     1       1.368   6.545  -0.674  1.00  0.00    -0.353 N 
ATOM     23  C   UNL     1       0.567   6.299   0.533  1.00  0.00     0.139 C 
ATOM     24  C   UNL     1       2.715   5.973  -0.534  1.00  0.00     0.139 C 
ATOM     25  C   UNL     1       0.456   4.791   0.771  1.00  0.00     0.138 C 
ATOM     26  C   UNL     1       2.605   4.466  -0.295  1.00  0.00     0.138 C 
ATOM     27  N   UNL     1       1.803   4.220   0.912  1.00  0.00    -0.368 N 
BRANCH  27  28
ATOM     28  C   UNL     1       1.740   2.854   1.202  1.00  0.00     0.037 A 
ATOM     29  C   UNL     1       2.390   1.939   0.385  1.00  0.00     0.029 A 
ATOM     30  C   UNL     1       1.027   2.411   2.308  1.00  0.00     0.029 A 
ATOM     31  C   UNL     1       2.326   0.590   0.674  1.00  0.00     0.041 A 
ATOM     32  C   UNL     1       0.966   1.061   2.594  1.00  0.00     0.041 A 
ATOM     33  C   UNL     1       1.615   0.150   1.777  1.00  0.00     0.123 A 
ATOM     34  F   UNL     1       1.554  -1.171   2.058  1.00  0.00    -0.207 F 
ENDBRANCH  27  28
ENDBRANCH  17  22
BRANCH  21  35
ATOM     35  S   UNL     1       2.619  11.155   0.870  1.00  0.00    -0.090 SA
ATOM     36  C   UNL     1       2.462  12.724  -0.018  1.00  0.00     0.094 C 
ENDBRANCH  21  35
ENDBRANCH  15  16
ENDBRANCH   1  15
TORSDOF 9
