REMARK SMILES Cc1nc2nc(N)nn2c(C)c1CC(=O)Nc1nnc(C2CCCCC2)s1
REMARK SMILES IDX 14 1 15 2 16 3 13 5 12 6 1 7 2 8 3 9 4 10 10 11 9 12 5 13
REMARK SMILES IDX 11 14 8 15 6 16 7 17 17 20 27 21 18 22 20 23 19 24 21 25
REMARK SMILES IDX 26 26 22 27 25 28 23 29 24 30
REMARK H PARENT 16 4 7 18 7 19
REMARK Flexibility Score: inf
ROOT
ATOM      1  C   UNL     1       4.150   4.855  -1.431  1.00  0.00     0.230 C 
ATOM      2  O   UNL     1       3.787   4.157  -2.353  1.00  0.00    -0.274 OA
ATOM      3  N   UNL     1       4.745   6.040  -1.675  1.00  0.00    -0.300 N 
ATOM      4  H   UNL     1       5.054   6.633  -0.892  1.00  0.00     0.172 HD
ENDROOT
BRANCH   1   5
ATOM      5  C   UNL     1       3.937   4.399  -0.011  1.00  0.00     0.139 C 
BRANCH   5   6
ATOM      6  C   UNL     1       3.258   3.053  -0.012  1.00  0.00     0.004 A 
ATOM      7  C   UNL     1       5.521   1.956  -0.040  1.00  0.00     0.067 C 
ATOM      8  C   UNL     1       4.017   1.877  -0.026  1.00  0.00     0.047 A 
ATOM      9  N   UNL     1       3.422   0.705  -0.027  1.00  0.00    -0.216 NA
ATOM     10  C   UNL     1       2.088   0.612  -0.015  1.00  0.00     0.254 A 
ATOM     11  C   UNL     1       1.902   2.968   0.000  1.00  0.00     0.049 A 
ATOM     12  N   UNL     1       1.318   1.741  -0.001  1.00  0.00    -0.199 N 
ATOM     13  N   UNL     1       1.263  -0.430  -0.012  1.00  0.00    -0.174 NA
ATOM     14  C   UNL     1       1.058   4.216   0.015  1.00  0.00     0.067 C 
ATOM     15  N   UNL     1      -0.016   1.313   0.009  1.00  0.00    -0.126 NA
ATOM     16  C   UNL     1       0.002  -0.004   0.002  1.00  0.00     0.241 A 
BRANCH  16  17
ATOM     17  N   UNL     1      -1.123  -0.824   0.008  1.00  0.00    -0.366 N 
ATOM     18  H   UNL     1      -0.949  -1.839   0.001  1.00  0.00     0.159 HD
ATOM     19  H   UNL     1      -2.083  -0.448   0.019  1.00  0.00     0.159 HD
ENDBRANCH  16  17
ENDBRANCH   5   6
ENDBRANCH   1   5
BRANCH   3  20
ATOM     20  C   UNL     1       4.942   6.461  -2.986  1.00  0.00     0.212 A 
ATOM     21  S   UNL     1       5.666   7.926  -3.582  1.00  0.00    -0.079 S 
ATOM     22  N   UNL     1       4.625   5.862  -4.121  1.00  0.00    -0.120 NA
ATOM     23  C   UNL     1       5.467   7.557  -5.322  1.00  0.00     0.122 A 
ATOM     24  N   UNL     1       4.874   6.383  -5.243  1.00  0.00    -0.141 NA
BRANCH  23  25
ATOM     25  C   UNL     1       5.859   8.364  -6.532  1.00  0.00     0.051 C 
ATOM     26  C   UNL     1       6.841   7.559  -7.386  1.00  0.00     0.011 C 
ATOM     27  C   UNL     1       4.611   8.685  -7.357  1.00  0.00     0.011 C 
ATOM     28  C   UNL     1       7.239   8.378  -8.615  1.00  0.00     0.001 C 
ATOM     29  C   UNL     1       5.009   9.504  -8.587  1.00  0.00     0.001 C 
ATOM     30  C   UNL     1       5.991   8.699  -9.440  1.00  0.00     0.000 C 
ENDBRANCH  23  25
ENDBRANCH   3  20
TORSDOF 5
