REMARK SMILES Cc1cc(/C=C(\C#N)C(=O)N2CCC(c3nc4ccccc4s3)CC2)c(C)n1C[C@@H]1CCCO1
REMARK SMILES IDX 1 1 2 2 3 3 4 4 26 5 28 6 27 7 29 8 30 9 34 10 31 11 33 12
REMARK SMILES IDX 32 13 5 14 6 15 7 16 8 17 9 18 10 19 11 20 25 21 12 22 24 23
REMARK SMILES IDX 13 24 14 25 15 26 23 27 16 28 22 29 17 30 21 31 18 32 20 33
REMARK SMILES IDX 19 34
REMARK H PARENT
REMARK Flexibility Score: inf
ROOT
ATOM      1  C   UNL     1      -1.770   3.400   0.056  1.00  0.00     0.064 C 
ATOM      2  C   UNL     1      -0.704   4.046   0.902  1.00  0.00     0.015 A 
ATOM      3  C   UNL     1      -0.895   5.075   1.744  1.00  0.00     0.031 A 
ATOM      4  C   UNL     1       0.413   5.370   2.344  1.00  0.00    -0.003 A 
ATOM      5  C   UNL     1       1.296   4.456   1.792  1.00  0.00     0.022 A 
ATOM      6  N   UNL     1       0.610   3.675   0.938  1.00  0.00    -0.346 N 
ATOM      7  C   UNL     1       2.769   4.354   2.096  1.00  0.00     0.065 C 
ENDROOT
BRANCH   6   8
ATOM      8  C   UNL     1       1.191   2.583   0.152  1.00  0.00     0.154 C 
BRANCH   8   9
ATOM      9  C   UNL     1       1.110   1.281   0.951  1.00  0.00     0.138 C 
ATOM     10  O   UNL     1      -0.265   0.877   1.127  1.00  0.00    -0.376 OA
ATOM     11  C   UNL     1       1.731   0.109   0.148  1.00  0.00     0.036 C 
ATOM     12  C   UNL     1      -0.256  -0.533   1.406  1.00  0.00     0.160 C 
ATOM     13  C   UNL     1       1.016  -1.119   0.762  1.00  0.00     0.031 C 
ENDBRANCH   8   9
ENDBRANCH   6   8
BRANCH   4  14
ATOM     14  C   UNL     1       0.711   6.381   3.293  1.00  0.00     0.035 C 
ATOM     15  C   UNL     1      -0.308   6.982   4.004  1.00  0.00     0.118 C 
BRANCH  15  16
ATOM     16  C   UNL     1      -1.651   6.503   3.874  1.00  0.00     0.105 C 
ATOM     17  N   UNL     1      -2.717   6.122   3.771  1.00  0.00    -0.192 NA
ENDBRANCH  15  16
BRANCH  15  18
ATOM     18  C   UNL     1      -0.015   8.114   4.894  1.00  0.00     0.264 C 
ATOM     19  O   UNL     1       1.139   8.412   5.139  1.00  0.00    -0.268 OA
ATOM     20  N   UNL     1      -1.024   8.822   5.439  1.00  0.00    -0.338 N 
ATOM     21  C   UNL     1      -2.372   8.775   4.856  1.00  0.00     0.120 C 
ATOM     22  C   UNL     1      -0.799   9.650   6.632  1.00  0.00     0.120 C 
ATOM     23  C   UNL     1      -2.840  10.207   4.581  1.00  0.00     0.032 C 
ATOM     24  C   UNL     1      -1.284  11.077   6.334  1.00  0.00     0.032 C 
ATOM     25  C   UNL     1      -2.741  11.028   5.869  1.00  0.00     0.052 C 
BRANCH  25  26
ATOM     26  C   UNL     1      -3.233  12.428   5.611  1.00  0.00     0.097 A 
ATOM     27  S   UNL     1      -2.612  13.598   4.489  1.00  0.00    -0.118 S 
ATOM     28  N   UNL     1      -4.224  13.055   6.181  1.00  0.00    -0.241 NA
ATOM     29  C   UNL     1      -3.759  14.904   4.851  1.00  0.00     0.055 A 
ATOM     30  C   UNL     1      -4.564  14.320   5.856  1.00  0.00     0.082 A 
ATOM     31  C   UNL     1      -3.961  16.184   4.397  1.00  0.00     0.021 A 
ATOM     32  C   UNL     1      -5.600  15.125   6.378  1.00  0.00     0.030 A 
ATOM     33  C   UNL     1      -4.986  16.940   4.933  1.00  0.00     0.002 A 
ATOM     34  C   UNL     1      -5.793  16.392   5.921  1.00  0.00     0.002 A 
ENDBRANCH  25  26
ENDBRANCH  15  18
ENDBRANCH   4  14
TORSDOF 6
