REMARK SMILES C[NH+]1CCN(Cc2ccc3c(c2)C=C/C(=C2\C(=O)Nc4cc(-c5noc(COCc6ccccc6)n5)ccc42)N3)CC1
REMARK SMILES IDX 23 1 36 2 26 3 25 4 24 5 22 6 7 7 12 8 8 9 11 10 9 11 10 12
REMARK SMILES IDX 13 13 40 14 14 15 15 16 16 18 17 19 39 20 19 21 18 22 20 23
REMARK SMILES IDX 38 24 21 26 37 27 6 28 5 29 1 30 2 31 42 32 3 33 41 35 4 36
REMARK SMILES IDX 27 37 28 38 29 39 30 40 35 41 31 42 34 43 32 44 33 45
REMARK H PARENT 40 17 19 25 2 34
REMARK Flexibility Score: inf
ROOT
ATOM      1  C   UNL     1      10.352   2.797   0.255  1.00  0.00     0.202 A 
ATOM      2  N   UNL     1      10.943   1.585   0.366  1.00  0.00    -0.189 NA
ATOM      3  C   UNL     1      12.230   1.822   0.386  1.00  0.00     0.252 A 
ATOM      4  O   UNL     1      12.389   3.146   0.297  1.00  0.00    -0.336 OA
ATOM      5  N   UNL     1      11.307   3.690   0.223  1.00  0.00    -0.057 NA
ENDROOT
BRANCH   1   6
ATOM      6  C   UNL     1       8.895   3.063   0.188  1.00  0.00     0.025 A 
ATOM      7  C   UNL     1       0.001  -0.003  -0.036  1.00  0.00    -0.033 A 
ATOM      8  C   UNL     1      -0.017   1.362   0.008  1.00  0.00     0.015 A 
ATOM      9  C   UNL     1       1.205  -0.693  -0.088  1.00  0.00     0.007 A 
ATOM     10  C   UNL     1       1.189   2.072   0.001  1.00  0.00    -0.002 A 
ATOM     11  C   UNL     1       2.405  -0.015  -0.096  1.00  0.00     0.027 A 
ATOM     12  C   UNL     1       2.412   1.376  -0.051  1.00  0.00     0.046 A 
ATOM     13  C   UNL     1       1.204   3.535   0.047  1.00  0.00     0.012 C 
ATOM     14  N   UNL     1       3.597   2.079  -0.058  1.00  0.00    -0.354 N 
ATOM     15  C   UNL     1       2.400   4.178   0.038  1.00  0.00     0.027 C 
ATOM     16  C   UNL     1       3.599   3.444  -0.015  1.00  0.00     0.052 C 
ATOM     17  H   UNL     1       4.492   1.569  -0.096  1.00  0.00     0.167 HD
ATOM     18  C   UNL     1       4.825   4.131  -0.023  1.00  0.00     0.072 C 
ATOM     19  C   UNL     1       5.018   5.525  -0.121  1.00  0.00     0.258 C 
ATOM     20  C   UNL     1       6.174   3.541   0.064  1.00  0.00     0.013 A 
ATOM     21  N   UNL     1       6.334   5.791  -0.092  1.00  0.00    -0.321 N 
ATOM     22  O   UNL     1       4.130   6.357  -0.216  1.00  0.00    -0.269 OA
ATOM     23  C   UNL     1       7.072   4.620   0.016  1.00  0.00     0.050 A 
ATOM     24  C   UNL     1       6.647   2.235   0.173  1.00  0.00     0.012 A 
ATOM     25  H   UNL     1       6.741   6.736  -0.142  1.00  0.00     0.170 HD
ATOM     26  C   UNL     1       8.434   4.372   0.079  1.00  0.00     0.039 A 
ATOM     27  C   UNL     1       7.991   1.998   0.233  1.00  0.00     0.013 A 
BRANCH   7  28
ATOM     28  C   UNL     1      -1.297  -0.768  -0.029  1.00  0.00     0.120 C 
BRANCH  28  29
ATOM     29  N   UNL     1      -1.753  -0.972  -1.410  1.00  0.00    -0.288 NA
ATOM     30  C   UNL     1      -4.085  -1.083  -4.931  1.00  0.00     0.332 C 
ATOM     31  N   UNL     1      -3.629  -0.879  -3.550  1.00  0.00    -0.335 N 
ATOM     32  C   UNL     1      -2.500   0.060  -3.501  1.00  0.00     0.277 C 
ATOM     33  C   UNL     1      -3.275  -2.157  -2.917  1.00  0.00     0.277 C 
ATOM     34  H   UNL     1      -4.409  -0.466  -3.018  1.00  0.00     0.347 HD
ATOM     35  C   UNL     1      -2.107   0.307  -2.042  1.00  0.00     0.146 C 
ATOM     36  C   UNL     1      -2.883  -1.911  -1.459  1.00  0.00     0.146 C 
ENDBRANCH  28  29
ENDBRANCH   7  28
ENDBRANCH   1   6
BRANCH   3  37
ATOM     37  C   UNL     1      13.328   0.795   0.495  1.00  0.00     0.260 C 
BRANCH  37  38
ATOM     38  O   UNL     1      13.720   0.375  -0.813  1.00  0.00    -0.367 OA
BRANCH  38  39
ATOM     39  C   UNL     1      14.761  -0.604  -0.822  1.00  0.00     0.196 C 
BRANCH  39  40
ATOM     40  C   UNL     1      15.092  -0.972  -2.245  1.00  0.00    -0.022 A 
ATOM     41  C   UNL     1      16.064  -0.269  -2.932  1.00  0.00     0.006 A 
ATOM     42  C   UNL     1      14.429  -2.017  -2.861  1.00  0.00     0.006 A 
ATOM     43  C   UNL     1      16.368  -0.607  -4.238  1.00  0.00     0.000 A 
ATOM     44  C   UNL     1      14.729  -2.351  -4.168  1.00  0.00     0.000 A 
ATOM     45  C   UNL     1      15.701  -1.648  -4.856  1.00  0.00     0.000 A 
ENDBRANCH  39  40
ENDBRANCH  38  39
ENDBRANCH  37  38
ENDBRANCH   3  37
TORSDOF 7
