REMARK SMILES Cc1ccc(-n2c(C)cc(/C=N/NC(=O)c3ccc(C[NH+]4CCN(c5ccccc5)CC4)cc3)c2C)cc1C
REMARK SMILES IDX 16 1 17 2 18 3 19 4 33 5 34 6 14 7 13 8 15 10 12 11 11 12
REMARK SMILES IDX 10 13 6 14 35 15 7 16 36 17 9 18 8 19 5 20 1 21 2 22 38 23
REMARK SMILES IDX 3 24 37 25 39 26 4 27 20 28 21 29 32 30 22 31 31 33 23 34
REMARK SMILES IDX 24 35 25 36 30 37 26 38 29 39 27 40 28 41
REMARK H PARENT 13 9 21 32
REMARK Flexibility Score: inf
ROOT
ATOM      1  C   UNL     1      -1.197   6.878  -4.699  1.00  0.00     0.041 A 
ATOM      2  C   UNL     1      -2.022   6.627  -3.600  1.00  0.00     0.014 A 
ATOM      3  C   UNL     1      -1.473   6.169  -2.421  1.00  0.00     0.010 A 
ATOM      4  C   UNL     1      -0.109   5.957  -2.325  1.00  0.00     0.006 A 
ATOM      5  C   UNL     1       0.715   6.209  -3.408  1.00  0.00     0.010 A 
ATOM      6  C   UNL     1       0.178   6.663  -4.595  1.00  0.00     0.014 A 
ENDROOT
BRANCH   1   7
ATOM      7  C   UNL     1      -1.779   7.369  -5.966  1.00  0.00     0.271 C 
ATOM      8  N   UNL     1      -0.980   7.610  -7.024  1.00  0.00    -0.243 N 
ATOM      9  H   UNL     1       0.035   7.453  -6.950  1.00  0.00     0.194 HD
ATOM     10  O   UNL     1      -2.977   7.555  -6.053  1.00  0.00    -0.267 OA
BRANCH   8  11
ATOM     11  N   UNL     1      -1.531   8.076  -8.226  1.00  0.00    -0.180 NA
ATOM     12  C   UNL     1      -0.762   8.308  -9.245  1.00  0.00     0.143 C 
BRANCH  12  13
ATOM     13  C   UNL     1      -1.342   8.798 -10.509  1.00  0.00     0.016 A 
ATOM     14  N   UNL     1      -2.771   9.487 -12.046  1.00  0.00    -0.318 N 
ATOM     15  C   UNL     1      -2.660   9.048 -10.763  1.00  0.00     0.029 A 
ATOM     16  C   UNL     1      -1.540   9.518 -12.637  1.00  0.00     0.021 A 
ATOM     17  C   UNL     1      -3.796   8.871  -9.789  1.00  0.00     0.065 C 
ATOM     18  C   UNL     1      -0.619   9.107 -11.747  1.00  0.00     0.033 A 
ATOM     19  C   UNL     1      -1.259   9.944 -14.055  1.00  0.00     0.065 C 
BRANCH  14  20
ATOM     20  C   UNL     1      -3.972   9.849 -12.671  1.00  0.00     0.046 A 
ATOM     21  C   UNL     1      -7.636  10.953 -14.575  1.00  0.00     0.044 C 
ATOM     22  C   UNL     1      -6.344  10.563 -13.904  1.00  0.00    -0.048 A 
ATOM     23  C   UNL     1      -5.365  11.515 -13.687  1.00  0.00    -0.046 A 
ATOM     24  C   UNL     1      -6.140   9.255 -13.506  1.00  0.00     0.006 A 
ATOM     25  C   UNL     1      -4.182  11.163 -13.067  1.00  0.00     0.030 A 
ATOM     26  C   UNL     1      -5.591  12.941 -14.121  1.00  0.00     0.044 C 
ATOM     27  C   UNL     1      -4.957   8.895 -12.890  1.00  0.00     0.027 A 
ENDBRANCH  14  20
ENDBRANCH  12  13
ENDBRANCH   8  11
ENDBRANCH   1   7
BRANCH   4  28
ATOM     28  C   UNL     1       0.484   5.456  -1.033  1.00  0.00     0.299 C 
BRANCH  28  29
ATOM     29  N   UNL     1       0.504   3.987  -1.041  1.00  0.00    -0.328 N 
ATOM     30  C   UNL     1      -0.861   3.442  -1.031  1.00  0.00     0.284 C 
ATOM     31  C   UNL     1       1.285   3.464   0.089  1.00  0.00     0.284 C 
ATOM     32  H   UNL     1       0.962   3.682  -1.912  1.00  0.00     0.348 HD
ATOM     33  C   UNL     1      -0.798   1.915  -1.120  1.00  0.00     0.178 C 
ATOM     34  C   UNL     1       1.348   1.938  -0.000  1.00  0.00     0.178 C 
ATOM     35  N   UNL     1      -0.017   1.393   0.010  1.00  0.00    -0.360 N 
BRANCH  35  36
ATOM     36  C   UNL     1       0.002  -0.004   0.002  1.00  0.00     0.037 A 
ATOM     37  C   UNL     1      -1.190  -0.717   0.010  1.00  0.00     0.026 A 
ATOM     38  C   UNL     1       1.213  -0.684  -0.019  1.00  0.00     0.026 A 
ATOM     39  C   UNL     1      -1.168  -2.097   0.002  1.00  0.00     0.002 A 
ATOM     40  C   UNL     1       1.229  -2.065  -0.022  1.00  0.00     0.002 A 
ATOM     41  C   UNL     1       0.040  -2.771  -0.014  1.00  0.00     0.000 A 
ENDBRANCH  35  36
ENDBRANCH  28  29
ENDBRANCH   4  28
TORSDOF 7
