REMARK SMILES CC(C)(C)c1nn2c(SCC(=O)NC3CCCCCC3)nnc2[nH]c1=O
REMARK SMILES IDX 11 1 12 2 13 3 10 5 9 6 8 7 5 8 6 9 25 10 7 11 26 12 24 13
REMARK SMILES IDX 23 14 22 16 21 17 2 18 1 19 3 20 4 21 14 22 20 23 19 24
REMARK SMILES IDX 18 25 15 27 16 28 17 29
REMARK H PARENT 13 4 24 15
REMARK Flexibility Score: 90.00
ROOT
ATOM      1  C   UNL     1       1.147   1.655   0.000  1.00  0.00     0.230 C 
ATOM      2  O   UNL     1       1.130   2.868   0.007  1.00  0.00    -0.274 OA
ATOM      3  N   UNL     1      -0.011   0.966   0.007  1.00  0.00    -0.353 N 
ATOM      4  H   UNL     1       0.003  -0.064   0.006  1.00  0.00     0.163 HD
ENDROOT
BRANCH   1   5
ATOM      5  C   UNL     1       2.462   0.920  -0.017  1.00  0.00     0.178 C 
BRANCH   5   6
ATOM      6  S   UNL     1       3.825   2.117  -0.023  1.00  0.00    -0.074 SA
BRANCH   6   7
ATOM      7  C   UNL     1       5.273   1.115  -0.042  1.00  0.00     0.214 A 
ATOM      8  C   UNL     1       8.388   3.043  -0.063  1.00  0.00     0.132 A 
ATOM      9  N   UNL     1       7.101   2.862  -0.051  1.00  0.00    -0.161 NA
ATOM     10  C   UNL     1       9.289   1.884  -0.077  1.00  0.00     0.274 A 
ATOM     11  N   UNL     1       6.566   1.568  -0.052  1.00  0.00    -0.172 N 
ATOM     12  O   UNL     1      10.495   2.044  -0.088  1.00  0.00    -0.267 OA
ATOM     13  N   UNL     1       8.768   0.639  -0.078  1.00  0.00    -0.288 N 
ATOM     14  C   UNL     1       7.395   0.472  -0.065  1.00  0.00     0.253 A 
ATOM     15  H   UNL     1       9.389  -0.182  -0.087  1.00  0.00     0.173 HD
ATOM     16  N   UNL     1       6.643  -0.602  -0.063  1.00  0.00    -0.108 NA
ATOM     17  N   UNL     1       5.303  -0.196  -0.044  1.00  0.00    -0.119 NA
BRANCH   8  18
ATOM     18  C   UNL     1       8.954   4.439  -0.061  1.00  0.00     0.012 C 
ATOM     19  C   UNL     1       7.809   5.454  -0.046  1.00  0.00     0.018 C 
ATOM     20  C   UNL     1       9.825   4.635   1.181  1.00  0.00     0.018 C 
ATOM     21  C   UNL     1       9.802   4.647  -1.318  1.00  0.00     0.018 C 
ENDBRANCH   8  18
ENDBRANCH   6   7
ENDBRANCH   5   6
ENDBRANCH   1   5
BRANCH   3  22
ATOM     22  C   UNL     1      -1.290   1.681   0.017  1.00  0.00     0.082 C 
BRANCH  22  23
ATOM     23  C   UNL     1      -2.313   0.825  -0.564  1.00  0.00     0.025 C 
BRANCH  23  24
ATOM     24  C   UNL     1      -3.684   1.526  -0.655  1.00  0.00     0.002 C 
BRANCH  24  25
ATOM     25  C   UNL     1      -4.340   1.470   0.698  1.00  0.00     0.000 CG0
ATOM     26  G   UNL     1      -4.069   2.734   1.537  1.00  0.00     0.000 G0
ENDBRANCH  24  25
ENDBRANCH  23  24
ENDBRANCH  22  23
BRANCH  22  27
ATOM     27  C   UNL     1      -1.621   2.092   1.467  1.00  0.00     0.025 C 
BRANCH  27  28
ATOM     28  C   UNL     1      -2.612   3.223   1.428  1.00  0.00     0.002 C 
BRANCH  28  29
ATOM     29  C   UNL     1      -4.069   2.734   1.537  1.00  0.00     0.000 CG0
ATOM     30  G   UNL     1      -4.340   1.470   0.698  1.00  0.00     0.000 G0
ENDBRANCH  28  29
ENDBRANCH  27  28
ENDBRANCH  22  27
ENDBRANCH   3  22
TORSDOF 5
