REMARK SMILES Cc1cc(C)c(-c2cc(NC(=O)CSc3nnc(C4CC4)[nH]3)n(-c3ccccc3)n2)cc1C
REMARK SMILES IDX 13 1 11 2 10 3 12 5 9 6 7 7 30 8 8 9 23 10 6 11 1 12 2 13
REMARK SMILES IDX 32 14 3 15 31 16 33 17 4 18 5 19 24 20 29 21 25 22 28 23
REMARK SMILES IDX 26 24 27 25 14 26 15 27 16 28 22 29 17 30 18 31 19 33 21 34
REMARK SMILES IDX 20 35
REMARK H PARENT 10 4 22 32
REMARK Flexibility Score: inf
ROOT
ATOM      1  C   UNL     1      -2.154  -3.086   0.005  1.00  0.00     0.178 C 
ENDROOT
BRANCH   1   2
ATOM      2  C   UNL     1      -0.950  -2.180  -0.001  1.00  0.00     0.236 C 
ATOM      3  N   UNL     1      -1.113  -0.842   0.007  1.00  0.00    -0.310 N 
ATOM      4  H   UNL     1      -2.060  -0.439   0.018  1.00  0.00     0.171 HD
ATOM      5  O   UNL     1       0.166  -2.655  -0.014  1.00  0.00    -0.274 OA
BRANCH   3   6
ATOM      6  C   UNL     1       0.002  -0.004   0.002  1.00  0.00     0.137 A 
ATOM      7  C   UNL     1       2.104   0.758  -0.014  1.00  0.00     0.095 A 
ATOM      8  N   UNL     1       1.310   1.808  -0.001  1.00  0.00    -0.166 NA
ATOM      9  C   UNL     1       1.302  -0.399  -0.013  1.00  0.00     0.078 A 
ATOM     10  N   UNL     1      -0.016   1.358   0.009  1.00  0.00    -0.217 N 
BRANCH   7  11
ATOM     11  C   UNL     1       3.587   0.789  -0.028  1.00  0.00     0.005 A 
ATOM     12  C   UNL     1       7.862   0.878  -0.068  1.00  0.00     0.044 C 
ATOM     13  C   UNL     1       6.355   0.847  -0.054  1.00  0.00    -0.048 A 
ATOM     14  C   UNL     1       5.691  -0.367  -0.054  1.00  0.00    -0.048 A 
ATOM     15  C   UNL     1       5.641   2.032  -0.041  1.00  0.00     0.007 A 
ATOM     16  C   UNL     1       4.311  -0.401  -0.035  1.00  0.00     0.014 A 
ATOM     17  C   UNL     1       6.476  -1.653  -0.069  1.00  0.00     0.044 C 
ATOM     18  C   UNL     1       4.261   2.009  -0.028  1.00  0.00    -0.041 A 
ATOM     19  C   UNL     1       3.485   3.300  -0.013  1.00  0.00     0.045 C 
ENDBRANCH   7  11
BRANCH  10  20
ATOM     20  C   UNL     1      -1.161   2.166   0.019  1.00  0.00     0.067 A 
ATOM     21  C   UNL     1      -1.158   3.367   0.715  1.00  0.00     0.028 A 
ATOM     22  C   UNL     1      -2.298   1.769  -0.671  1.00  0.00     0.028 A 
ATOM     23  C   UNL     1      -2.288   4.162   0.723  1.00  0.00     0.002 A 
ATOM     24  C   UNL     1      -3.427   2.565  -0.654  1.00  0.00     0.002 A 
ATOM     25  C   UNL     1      -3.421   3.761   0.039  1.00  0.00     0.000 A 
ENDBRANCH  10  20
ENDBRANCH   3   6
ENDBRANCH   1   2
BRANCH   1  26
ATOM     26  S   UNL     1      -1.611  -4.812  -0.009  1.00  0.00    -0.076 SA
BRANCH  26  27
ATOM     27  C   UNL     1      -3.174  -5.625   0.000  1.00  0.00     0.189 A 
ATOM     28  N   UNL     1      -4.354  -5.049   0.019  1.00  0.00    -0.123 NA
ATOM     29  N   UNL     1      -3.388  -6.973  -0.005  1.00  0.00    -0.320 N 
ATOM     30  N   UNL     1      -5.277  -5.943   0.018  1.00  0.00    -0.134 NA
ATOM     31  C   UNL     1      -4.746  -7.133   0.007  1.00  0.00     0.134 A 
ATOM     32  H   UNL     1      -2.675  -7.716  -0.016  1.00  0.00     0.170 HD
BRANCH  31  33
ATOM     33  C   UNL     1      -5.492  -8.443   0.007  1.00  0.00     0.058 C 
ATOM     34  C   UNL     1      -5.750  -9.109  -1.346  1.00  0.00     0.012 C 
ATOM     35  C   UNL     1      -4.713  -9.699  -0.387  1.00  0.00     0.012 C 
ENDBRANCH  31  33
ENDBRANCH  26  27
ENDBRANCH   1  26
TORSDOF 7
