REMARK SMILES COC(=O)[C@@H]1Cc2c([nH]c3ccccc23)[C@H]2C[C@H]([NH2+]CCO)C[C@@H](c3ccc(F)cc3)N21
REMARK SMILES IDX 19 1 18 4 5 5 6 6 32 7 7 8 16 9 24 10 8 11 15 12 17 13 23 14
REMARK SMILES IDX 9 15 10 16 14 17 11 19 13 20 12 21 3 22 4 23 2 24 1 25 25 26
REMARK SMILES IDX 31 27 26 28 30 29 27 30 28 31 29 32 20 33 21 34 22 35
REMARK H PARENT 19 2 19 3 9 18 22 36
REMARK Flexibility Score: inf
ROOT
ATOM      1  N   UNL     1      -1.825   2.779   1.854  1.00  0.00    -0.342 N 
ATOM      2  H   UNL     1      -1.641   3.214   0.939  1.00  0.00     0.346 HD
ATOM      3  H   UNL     1      -2.746   3.087   2.196  1.00  0.00     0.346 HD
ENDROOT
BRANCH   1   4
ATOM      4  C   UNL     1      -1.823   1.311   1.706  1.00  0.00     0.186 C 
ATOM      5  C   UNL     1      -2.845   1.403  -2.454  1.00  0.00     0.173 C 
ATOM      6  C   UNL     1      -4.035   0.563  -2.938  1.00  0.00     0.069 C 
ATOM      7  N   UNL     1      -2.497   0.978  -1.076  1.00  0.00    -0.274 NA
ATOM      8  C   UNL     1      -5.098   0.594  -1.869  1.00  0.00    -0.016 A 
ATOM      9  C   UNL     1      -3.516   1.459  -0.118  1.00  0.00     0.111 C 
ATOM     10  C   UNL     1      -1.167   1.499  -0.699  1.00  0.00     0.094 C 
ATOM     11  C   UNL     1      -4.869   0.995  -0.598  1.00  0.00     0.037 A 
ATOM     12  C   UNL     1      -6.495   0.230  -1.957  1.00  0.00     0.003 A 
ATOM     13  C   UNL     1      -3.211   0.849   1.252  1.00  0.00     0.090 C 
ATOM     14  C   UNL     1      -0.784   0.904   0.658  1.00  0.00     0.089 C 
ATOM     15  N   UNL     1      -6.024   0.909   0.130  1.00  0.00    -0.357 N 
ATOM     16  C   UNL     1      -7.036   0.449  -0.663  1.00  0.00     0.046 A 
ATOM     17  C   UNL     1      -7.290  -0.246  -3.004  1.00  0.00     0.010 A 
ATOM     18  H   UNL     1      -6.117   1.155   1.126  1.00  0.00     0.166 HD
ATOM     19  C   UNL     1      -8.381   0.192  -0.405  1.00  0.00     0.026 A 
ATOM     20  C   UNL     1      -8.611  -0.489  -2.720  1.00  0.00     0.001 A 
ATOM     21  C   UNL     1      -9.144  -0.277  -1.460  1.00  0.00     0.002 A 
BRANCH   5  22
ATOM     22  C   UNL     1      -3.216   2.864  -2.485  1.00  0.00     0.323 C 
ATOM     23  O   UNL     1      -3.001   3.562  -1.523  1.00  0.00    -0.250 OA
BRANCH  22  24
ATOM     24  O   UNL     1      -3.785   3.388  -3.582  1.00  0.00    -0.468 OA
ATOM     25  C   UNL     1      -4.115   4.801  -3.541  1.00  0.00     0.282 C 
ENDBRANCH  22  24
ENDBRANCH   5  22
BRANCH  10  26
ATOM     26  C   UNL     1      -0.160   1.074  -1.737  1.00  0.00    -0.030 A 
ATOM     27  C   UNL     1       0.845   1.943  -2.121  1.00  0.00     0.008 A 
ATOM     28  C   UNL     1      -0.238  -0.186  -2.300  1.00  0.00     0.008 A 
ATOM     29  C   UNL     1       1.769   1.555  -3.072  1.00  0.00     0.039 A 
ATOM     30  C   UNL     1       0.682  -0.574  -3.255  1.00  0.00     0.039 A 
ATOM     31  C   UNL     1       1.689   0.295  -3.640  1.00  0.00     0.123 A 
ATOM     32  F   UNL     1       2.591  -0.086  -4.571  1.00  0.00    -0.207 F 
ENDBRANCH  10  26
ENDBRANCH   1   4
BRANCH   1  33
ATOM     33  C   UNL     1      -0.784   3.198   2.811  1.00  0.00     0.289 C 
BRANCH  33  34
ATOM     34  C   UNL     1      -0.809   4.722   2.944  1.00  0.00     0.217 C 
BRANCH  34  35
ATOM     35  O   UNL     1      -2.050   5.129   3.526  1.00  0.00    -0.391 OA
ATOM     36  H   UNL     1      -2.145   4.718   4.422  1.00  0.00     0.210 HD
ENDBRANCH  34  35
ENDBRANCH  33  34
ENDBRANCH   1  33
TORSDOF 7
