REMARK SMILES Cc1csc(C2=C(N)NC(SCC(=O)N(C)[C@H]3CC[C@H](C)CC3)=C(C#N)C23CCCCC3)n1
REMARK SMILES IDX 12 1 11 2 10 3 6 4 27 5 7 6 24 7 32 8 28 9 9 10 31 11 29 12
REMARK SMILES IDX 30 14 5 15 1 16 2 17 33 18 3 19 4 20 8 21 25 24 26 25 13 26
REMARK SMILES IDX 14 27 15 28 16 29 17 30 23 31 18 32 22 33 19 34 20 35 21 36
REMARK H PARENT 9 13 8 22 8 23
REMARK Flexibility Score: inf
ROOT
ATOM      1  C   UNL     1      -1.469   5.280  -4.369  1.00  0.00     0.176 C 
ENDROOT
BRANCH   1   2
ATOM      2  S   UNL     1      -0.350   6.047  -5.567  1.00  0.00    -0.097 SA
BRANCH   2   3
ATOM      3  C   UNL     1      -1.490   6.411  -6.861  1.00  0.00     0.089 C 
ATOM      4  C   UNL     1      -3.415   7.277  -8.674  1.00  0.00     0.040 C 
ATOM      5  C   UNL     1      -1.983   7.336  -9.130  1.00  0.00     0.039 C 
ATOM      6  C   UNL     1      -3.769   6.668  -7.524  1.00  0.00     0.108 C 
ATOM      7  C   UNL     1      -1.051   7.020  -7.994  1.00  0.00     0.070 C 
ATOM      8  C   UNL     1      -1.772   6.325 -10.262  1.00  0.00     0.018 C 
ATOM      9  C   UNL     1      -1.678   8.744  -9.653  1.00  0.00     0.018 C 
ATOM     10  N   UNL     1      -2.818   6.081  -6.712  1.00  0.00    -0.336 N 
ATOM     11  C   UNL     1      -2.719   6.651 -11.418  1.00  0.00     0.001 C 
ATOM     12  C   UNL     1      -2.625   9.073 -10.809  1.00  0.00     0.001 C 
ATOM     13  H   UNL     1      -3.102   5.397  -5.996  1.00  0.00     0.169 HD
ATOM     14  C   UNL     1      -2.424   8.060 -11.938  1.00  0.00     0.000 C 
BRANCH   4  15
ATOM     15  C   UNL     1      -4.451   7.896  -9.499  1.00  0.00     0.124 A 
ATOM     16  C   UNL     1      -6.752   7.523 -12.352  1.00  0.00     0.067 C 
ATOM     17  C   UNL     1      -6.021   8.109 -11.172  1.00  0.00     0.049 A 
ATOM     18  N   UNL     1      -5.109   7.398 -10.543  1.00  0.00    -0.242 NA
ATOM     19  C   UNL     1      -6.301   9.369 -10.758  1.00  0.00     0.090 A 
ATOM     20  S   UNL     1      -5.181   9.523  -9.373  1.00  0.00    -0.122 S 
ENDBRANCH   4  15
BRANCH   6  21
ATOM     21  N   UNL     1      -5.099   6.631  -7.153  1.00  0.00    -0.385 N 
ATOM     22  H   UNL     1      -5.817   7.066  -7.750  1.00  0.00     0.158 HD
ATOM     23  H   UNL     1      -5.373   6.167  -6.276  1.00  0.00     0.158 HD
ENDBRANCH   6  21
BRANCH   7  24
ATOM     24  C   UNL     1       0.334   7.365  -8.110  1.00  0.00     0.098 C 
ATOM     25  N   UNL     1       1.433   7.639  -8.202  1.00  0.00    -0.193 NA
ENDBRANCH   7  24
ENDBRANCH   2   3
ENDBRANCH   1   2
BRANCH   1  26
ATOM     26  C   UNL     1      -0.691   4.875  -3.143  1.00  0.00     0.232 C 
ATOM     27  O   UNL     1       0.502   5.084  -3.086  1.00  0.00    -0.274 OA
BRANCH  26  28
ATOM     28  N   UNL     1      -1.322   4.280  -2.111  1.00  0.00    -0.342 N 
ATOM     29  C   UNL     1      -2.763   4.027  -2.181  1.00  0.00     0.147 C 
BRANCH  28  30
ATOM     30  C   UNL     1      -0.566   3.887  -0.920  1.00  0.00     0.084 C 
ATOM     31  C   UNL     1      -1.128   4.613   0.304  1.00  0.00     0.025 C 
ATOM     32  C   UNL     1      -0.686   2.375  -0.716  1.00  0.00     0.025 C 
ATOM     33  C   UNL     1      -0.338   4.202   1.548  1.00  0.00     0.005 C 
ATOM     34  C   UNL     1       0.104   1.964   0.529  1.00  0.00     0.005 C 
ATOM     35  C   UNL     1      -0.458   2.690   1.752  1.00  0.00    -0.014 C 
ATOM     36  C   UNL     1       0.331   2.279   2.997  1.00  0.00     0.007 C 
ENDBRANCH  28  30
ENDBRANCH  26  28
ENDBRANCH   1  26
TORSDOF 8
