REMARK SMILES Cc1ccc(C(=O)NNC(=O)CCn2cnc3c(C)cccc3c2=O)c(C)c1
REMARK SMILES IDX 9 1 10 2 11 3 8 5 6 6 7 7 5 9 1 10 2 11 28 12 3 13 26 14
REMARK SMILES IDX 4 15 27 16 12 17 13 18 14 19 24 20 15 21 23 22 25 23 16 24
REMARK SMILES IDX 17 25 22 26 18 27 21 28 20 29 19 30
REMARK H PARENT 9 4 8 8
REMARK Flexibility Score: inf
ROOT
ATOM      1  N   UNL     1       5.248   0.375  -2.781  1.00  0.00    -0.267 N 
ATOM      2  C   UNL     1       4.789   0.899  -1.627  1.00  0.00     0.240 C 
ATOM      3  O   UNL     1       5.289   0.573  -0.572  1.00  0.00    -0.273 OA
ATOM      4  H   UNL     1       4.824   0.652  -3.678  1.00  0.00     0.191 HD
ENDROOT
BRANCH   1   5
ATOM      5  N   UNL     1       6.303  -0.547  -2.761  1.00  0.00    -0.263 N 
ATOM      6  C   UNL     1       6.762  -1.071  -3.914  1.00  0.00     0.269 C 
ATOM      7  O   UNL     1       6.261  -0.744  -4.972  1.00  0.00    -0.267 OA
ATOM      8  H   UNL     1       6.728  -0.824  -1.864  1.00  0.00     0.191 HD
BRANCH   6   9
ATOM      9  C   UNL     1       7.875  -2.044  -3.893  1.00  0.00     0.044 A 
ATOM     10  C   UNL     1      11.094  -4.859  -3.831  1.00  0.00     0.044 C 
ATOM     11  C   UNL     1       9.960  -3.867  -3.853  1.00  0.00    -0.051 A 
ATOM     12  C   UNL     1       9.306  -3.594  -5.041  1.00  0.00     0.007 A 
ATOM     13  C   UNL     1       9.576  -3.233  -2.684  1.00  0.00     0.004 A 
ATOM     14  C   UNL     1       8.263  -2.691  -5.067  1.00  0.00    -0.038 A 
ATOM     15  C   UNL     1       8.539  -2.324  -2.697  1.00  0.00     0.014 A 
ATOM     16  C   UNL     1       7.549  -2.399  -6.361  1.00  0.00     0.045 C 
ENDBRANCH   6   9
ENDBRANCH   1   5
BRANCH   2  17
ATOM     17  C   UNL     1       3.655   1.891  -1.649  1.00  0.00     0.124 C 
BRANCH  17  18
ATOM     18  C   UNL     1       3.330   2.326  -0.219  1.00  0.00     0.137 C 
BRANCH  18  19
ATOM     19  N   UNL     1       2.228   3.290  -0.240  1.00  0.00    -0.298 N 
ATOM     20  C   UNL     1       2.495   4.613  -0.343  1.00  0.00     0.261 A 
ATOM     21  C   UNL     1       0.946   2.849  -0.156  1.00  0.00     0.203 A 
ATOM     22  C   UNL     1       1.350   5.536  -0.360  1.00  0.00     0.066 A 
ATOM     23  O   UNL     1       3.639   5.023  -0.419  1.00  0.00    -0.269 OA
ATOM     24  N   UNL     1      -0.085   3.639  -0.173  1.00  0.00    -0.238 NA
ATOM     25  C   UNL     1       0.053   4.985  -0.267  1.00  0.00     0.080 A 
ATOM     26  C   UNL     1       1.517   6.915  -0.463  1.00  0.00     0.016 A 
ATOM     27  C   UNL     1      -1.054   5.835  -0.280  1.00  0.00    -0.025 A 
ATOM     28  C   UNL     1       0.409   7.734  -0.474  1.00  0.00     0.001 A 
ATOM     29  C   UNL     1      -0.868   7.196  -0.383  1.00  0.00     0.006 A 
ATOM     30  C   UNL     1      -2.447   5.267  -0.182  1.00  0.00     0.047 C 
ENDBRANCH  18  19
ENDBRANCH  17  18
ENDBRANCH   2  17
TORSDOF 5
