REMARK SMILES Cc1nn(Cc2ccccc2Cl)c(Cl)c1/C=C/C(=O)Nc1ccc(Cl)c(C(N)=O)c1
REMARK SMILES IDX 16 1 17 2 15 3 1 4 2 5 3 6 4 7 13 8 14 9 5 10 6 11 11 12
REMARK SMILES IDX 7 13 10 14 12 15 8 16 9 17 18 18 19 19 20 20 21 22 30 23
REMARK SMILES IDX 22 24 26 25 23 26 24 27 25 28 27 29 29 30 28 31
REMARK H PARENT 20 21 28 32 28 33
REMARK Flexibility Score: inf
ROOT
ATOM      1  C   UNL     1      -0.910  -2.082  -0.445  1.00  0.00     0.019 C 
ATOM      2  C   UNL     1      -1.174  -0.757  -0.414  1.00  0.00     0.072 C 
ENDROOT
BRANCH   1   3
ATOM      3  C   UNL     1      -1.995  -3.052  -0.245  1.00  0.00     0.035 A 
ATOM      4  C   UNL     1      -1.547  -4.564  -2.317  1.00  0.00     0.069 C 
ATOM      5  C   UNL     1      -2.292  -4.163  -1.070  1.00  0.00     0.068 A 
ATOM      6  N   UNL     1      -3.321  -4.781  -0.560  1.00  0.00    -0.176 NA
ATOM      7  N   UNL     1      -3.735  -4.104   0.592  1.00  0.00    -0.249 N 
ATOM      8  C   UNL     1      -2.924  -3.048   0.782  1.00  0.00     0.134 A 
ATOM      9  Cl  UNL     1      -3.022  -1.894   2.076  1.00  0.00    -0.062 Cl
BRANCH   7  10
ATOM     10  C   UNL     1      -4.863  -4.481   1.448  1.00  0.00     0.183 C 
BRANCH  10  11
ATOM     11  C   UNL     1      -4.396  -5.469   2.486  1.00  0.00    -0.008 A 
ATOM     12  C   UNL     1      -4.314  -6.814   2.173  1.00  0.00     0.046 A 
ATOM     13  C   UNL     1      -4.056  -5.033   3.753  1.00  0.00     0.007 A 
ATOM     14  C   UNL     1      -3.881  -7.720   3.125  1.00  0.00     0.021 A 
ATOM     15  Cl  UNL     1      -4.749  -7.364   0.585  1.00  0.00    -0.084 Cl
ATOM     16  C   UNL     1      -3.628  -5.939   4.705  1.00  0.00     0.000 A 
ATOM     17  C   UNL     1      -3.541  -7.283   4.391  1.00  0.00     0.002 A 
ENDBRANCH  10  11
ENDBRANCH   7  10
ENDBRANCH   1   3
BRANCH   2  18
ATOM     18  C   UNL     1      -0.128   0.178  -0.607  1.00  0.00     0.248 C 
ATOM     19  O   UNL     1       1.009  -0.211  -0.801  1.00  0.00    -0.270 OA
ATOM     20  N   UNL     1      -0.391   1.500  -0.576  1.00  0.00    -0.322 N 
ATOM     21  H   UNL     1      -1.363   1.829  -0.491  1.00  0.00     0.170 HD
BRANCH  20  22
ATOM     22  C   UNL     1       0.656   2.424  -0.658  1.00  0.00     0.042 A 
ATOM     23  C   UNL     1       0.458   3.641  -1.290  1.00  0.00     0.041 A 
ATOM     24  C   UNL     1       1.894   2.123  -0.101  1.00  0.00     0.028 A 
ATOM     25  C   UNL     1       1.505   4.559  -1.370  1.00  0.00     0.060 A 
ATOM     26  C   UNL     1       2.933   3.029  -0.184  1.00  0.00     0.023 A 
ATOM     27  C   UNL     1       2.747   4.246  -0.812  1.00  0.00     0.053 A 
ATOM     28  Cl  UNL     1       4.054   5.383  -0.908  1.00  0.00    -0.083 Cl
BRANCH  25  29
ATOM     29  C   UNL     1       1.301   5.859  -2.043  1.00  0.00     0.250 C 
ATOM     30  O   UNL     1       2.215   6.658  -2.111  1.00  0.00    -0.269 OA
ATOM     31  N   UNL     1       0.102   6.159  -2.581  1.00  0.00    -0.366 N 
ATOM     32  H   UNL     1      -0.672   5.483  -2.523  1.00  0.00     0.159 HD
ATOM     33  H   UNL     1      -0.040   7.065  -3.050  1.00  0.00     0.159 HD
ENDBRANCH  25  29
ENDBRANCH  20  22
ENDBRANCH   2  18
TORSDOF 6
