REMARK SMILES CCOC(=O)c1cc(C)sc1NC(=O)CSc1nnc(-c2csc3c2CCCC3)n1CC
REMARK SMILES IDX 13 1 14 2 12 3 15 5 16 6 17 7 30 8 20 9 18 10 19 11 31 12
REMARK SMILES IDX 32 13 21 14 25 15 22 16 24 17 26 18 23 19 29 20 27 21 28 22
REMARK SMILES IDX 11 23 10 24 6 25 8 26 7 27 9 28 4 29 5 30 3 31 2 32 1 33
REMARK H PARENT 12 4
REMARK Flexibility Score: inf
ROOT
ATOM      1  C   UNL     1      -1.858   5.494   0.509  1.00  0.00     0.235 C 
ATOM      2  O   UNL     1      -0.709   5.859   0.382  1.00  0.00    -0.274 OA
ATOM      3  N   UNL     1      -2.133   4.190   0.713  1.00  0.00    -0.316 N 
ATOM      4  H   UNL     1      -3.109   3.880   0.821  1.00  0.00     0.170 HD
ENDROOT
BRANCH   1   5
ATOM      5  C   UNL     1      -2.980   6.498   0.440  1.00  0.00     0.178 C 
BRANCH   5   6
ATOM      6  S   UNL     1      -2.295   8.150   0.161  1.00  0.00    -0.076 SA
BRANCH   6   7
ATOM      7  C   UNL     1      -3.781   9.096   0.124  1.00  0.00     0.191 A 
ATOM      8  N   UNL     1      -3.878  10.447  -0.061  1.00  0.00    -0.302 N 
ATOM      9  C   UNL     1      -5.223  10.732  -0.014  1.00  0.00     0.165 A 
ATOM     10  N   UNL     1      -5.001   8.634   0.264  1.00  0.00    -0.123 NA
ATOM     11  N   UNL     1      -5.850   9.596   0.188  1.00  0.00    -0.129 NA
BRANCH   8  12
ATOM     12  C   UNL     1      -2.779  11.394  -0.267  1.00  0.00     0.123 C 
ATOM     13  C   UNL     1      -2.516  11.551  -1.766  1.00  0.00     0.028 C 
ENDBRANCH   8  12
BRANCH   9  14
ATOM     14  C   UNL     1      -5.845  12.065  -0.163  1.00  0.00     0.034 A 
ATOM     15  C   UNL     1      -6.933  12.245  -1.034  1.00  0.00    -0.023 A 
ATOM     16  C   UNL     1      -5.371  13.130   0.549  1.00  0.00     0.077 A 
ATOM     17  C   UNL     1      -7.446  13.499  -1.113  1.00  0.00     0.008 A 
ATOM     18  C   UNL     1      -7.533  11.113  -1.863  1.00  0.00     0.037 C 
ATOM     19  S   UNL     1      -6.447  14.446   0.003  1.00  0.00    -0.148 S 
ATOM     20  C   UNL     1      -8.593  13.962  -1.954  1.00  0.00     0.047 C 
ATOM     21  C   UNL     1      -8.936  11.520  -2.313  1.00  0.00     0.005 C 
ATOM     22  C   UNL     1      -8.887  12.884  -3.007  1.00  0.00     0.006 C 
ENDBRANCH   9  14
ENDBRANCH   6   7
ENDBRANCH   5   6
ENDBRANCH   1   5
BRANCH   3  23
ATOM     23  C   UNL     1      -1.101   3.267   0.776  1.00  0.00     0.110 A 
ATOM     24  S   UNL     1       0.601   3.543   0.625  1.00  0.00    -0.122 S 
ATOM     25  C   UNL     1      -1.183   1.892   0.971  1.00  0.00     0.095 A 
ATOM     26  C   UNL     1       1.193   1.875   0.823  1.00  0.00     0.004 A 
ATOM     27  C   UNL     1       0.065   1.165   0.998  1.00  0.00     0.033 A 
ATOM     28  C   UNL     1       2.616   1.379   0.799  1.00  0.00     0.056 C 
BRANCH  25  29
ATOM     29  C   UNL     1      -2.470   1.215   1.145  1.00  0.00     0.341 C 
ATOM     30  O   UNL     1      -3.503   1.857   1.116  1.00  0.00    -0.246 OA
BRANCH  29  31
ATOM     31  O   UNL     1      -2.510  -0.119   1.337  1.00  0.00    -0.462 OA
BRANCH  31  32
ATOM     32  C   UNL     1      -3.821  -0.722   1.502  1.00  0.00     0.230 C 
ATOM     33  C   UNL     1      -3.666  -2.230   1.707  1.00  0.00     0.049 C 
ENDBRANCH  31  32
ENDBRANCH  29  31
ENDBRANCH  25  29
ENDBRANCH   3  23
TORSDOF 9
