REMARK SMILES O=C([N-]c1n[nH]c(-c2ccccc2Br)n1)c1cc(-c2cccnc2)nc2ccccc12
REMARK SMILES IDX 2 1 1 2 16 3 29 4 30 5 28 6 31 7 27 8 26 9 25 10 17 11 18 12
REMARK SMILES IDX 19 13 24 14 20 15 23 16 21 17 22 18 3 19 4 20 15 21 5 22
REMARK SMILES IDX 7 23 6 24 8 26 13 27 9 28 12 29 14 30 10 31 11 32
REMARK H PARENT 6 25
REMARK Flexibility Score: inf
ROOT
ATOM      1  C   UNL     1      -2.559  -0.130   0.038  1.00  0.00     0.211 C 
ATOM      2  O   UNL     1      -2.637   1.079   0.139  1.00  0.00    -0.285 OA
ENDROOT
BRANCH   1   3
ATOM      3  C   UNL     1      -1.235  -0.787   0.025  1.00  0.00     0.037 A 
ATOM      4  C   UNL     1       1.159   2.083  -0.014  1.00  0.00     0.001 A 
ATOM      5  C   UNL     1      -0.017   1.393   0.002  1.00  0.00     0.011 A 
ATOM      6  C   UNL     1       2.380   1.411  -0.027  1.00  0.00     0.002 A 
ATOM      7  C   UNL     1       0.002  -0.006   0.007  1.00  0.00     0.012 A 
ATOM      8  C   UNL     1       2.434   0.052  -0.021  1.00  0.00     0.029 A 
ATOM      9  C   UNL     1       1.241  -0.694  -0.004  1.00  0.00     0.072 A 
ATOM     10  N   UNL     1       1.263  -2.028   0.002  1.00  0.00    -0.248 NA
ATOM     11  C   UNL     1      -1.115  -2.170   0.030  1.00  0.00     0.042 A 
ATOM     12  C   UNL     1       0.162  -2.750   0.018  1.00  0.00     0.073 A 
BRANCH  12  13
ATOM     13  C   UNL     1       0.277  -4.229   0.023  1.00  0.00     0.019 A 
ATOM     14  C   UNL     1      -0.865  -5.027   0.046  1.00  0.00     0.121 A 
ATOM     15  C   UNL     1       1.532  -4.844   0.011  1.00  0.00     0.013 A 
ATOM     16  N   UNL     1      -0.765  -6.340   0.046  1.00  0.00    -0.264 NA
ATOM     17  C   UNL     1       1.585  -6.227   0.017  1.00  0.00     0.021 A 
ATOM     18  C   UNL     1       0.405  -6.949   0.034  1.00  0.00     0.111 A 
ENDBRANCH  12  13
ENDBRANCH   1   3
BRANCH   1  19
ATOM     19  N   UNL     1      -3.680  -0.872  -0.061  1.00  0.00    -0.321 NA
BRANCH  19  20
ATOM     20  C   UNL     1      -4.923  -0.256  -0.049  1.00  0.00     0.049 A 
ATOM     21  N   UNL     1      -5.161   1.084   0.064  1.00  0.00    -0.341 NA
ATOM     22  N   UNL     1      -6.089  -0.852  -0.142  1.00  0.00    -0.297 NA
ATOM     23  C   UNL     1      -6.527   1.222   0.027  1.00  0.00     0.072 A 
ATOM     24  N   UNL     1      -7.034   0.018  -0.102  1.00  0.00    -0.333 N 
ATOM     25  H   UNL     1      -8.040  -0.198  -0.161  1.00  0.00     0.173 HD
BRANCH  23  26
ATOM     26  C   UNL     1      -7.285   2.489   0.115  1.00  0.00     0.016 A 
ATOM     27  C   UNL     1      -8.679   2.470   0.179  1.00  0.00     0.027 A 
ATOM     28  C   UNL     1      -6.609   3.710   0.130  1.00  0.00     0.011 A 
ATOM     29  C   UNL     1      -9.380   3.656   0.266  1.00  0.00     0.016 A 
ATOM     30  Br  UNL     1      -9.606   0.822   0.153  1.00  0.00    -0.050 Br
ATOM     31  C   UNL     1      -7.321   4.889   0.212  1.00  0.00     0.001 A 
ATOM     32  C   UNL     1      -8.703   4.863   0.280  1.00  0.00     0.001 A 
ENDBRANCH  23  26
ENDBRANCH  19  20
ENDBRANCH   1  19
TORSDOF 5
