REMARK SMILES CC[C@@H](C)NC(=O)c1c(N)n(-c2ccc(I)cc2)c2nc3ccccc3nc12
REMARK SMILES IDX 5 1 6 2 7 3 3 5 4 6 2 7 1 8 8 9 9 10 28 11 11 12 27 13 19 14
REMARK SMILES IDX 26 15 20 16 21 17 25 18 22 19 24 20 23 21 10 22 12 25 18 26
REMARK SMILES IDX 13 27 17 28 14 29 15 30 16 31
REMARK H PARENT 5 4 10 23 10 24
REMARK Flexibility Score: inf
ROOT
ATOM      1  N   UNL     1       0.263  -3.754   1.147  1.00  0.00    -0.349 N 
ATOM      2  C   UNL     1       0.664  -3.214  -0.021  1.00  0.00     0.257 C 
ATOM      3  O   UNL     1       0.283  -3.691  -1.074  1.00  0.00    -0.269 OA
ATOM      4  H   UNL     1       0.585  -3.350   2.038  1.00  0.00     0.164 HD
ENDROOT
BRANCH   1   5
ATOM      5  C   UNL     1      -0.631  -4.915   1.149  1.00  0.00     0.079 C 
ATOM      6  C   UNL     1      -2.081  -4.441   1.039  1.00  0.00     0.031 C 
BRANCH   5   7
ATOM      7  C   UNL     1      -0.447  -5.697   2.451  1.00  0.00     0.021 C 
ATOM      8  C   UNL     1       0.969  -6.276   2.503  1.00  0.00     0.006 C 
ENDBRANCH   5   7
ENDBRANCH   1   5
BRANCH   2   9
ATOM      9  C   UNL     1       1.555  -2.056  -0.023  1.00  0.00     0.110 A 
ATOM     10  C   UNL     1       2.945  -2.076  -0.035  1.00  0.00     0.125 A 
ATOM     11  C   UNL     1       1.157  -0.638  -0.012  1.00  0.00     0.123 A 
ATOM     12  N   UNL     1       3.440  -0.806  -0.033  1.00  0.00    -0.278 N 
ATOM     13  N   UNL     1       0.002  -0.004   0.002  1.00  0.00    -0.242 NA
ATOM     14  C   UNL     1       2.413   0.118  -0.019  1.00  0.00     0.166 A 
ATOM     15  C   UNL     1      -0.016   1.334   0.009  1.00  0.00     0.090 A 
ATOM     16  N   UNL     1       2.376   1.433  -0.013  1.00  0.00    -0.226 NA
ATOM     17  C   UNL     1       1.197   2.067   0.002  1.00  0.00     0.091 A 
ATOM     18  C   UNL     1      -1.240   2.029   0.019  1.00  0.00     0.030 A 
ATOM     19  C   UNL     1       1.149   3.474   0.009  1.00  0.00     0.031 A 
ATOM     20  C   UNL     1      -1.246   3.389   0.031  1.00  0.00     0.002 A 
ATOM     21  C   UNL     1      -0.054   4.110   0.024  1.00  0.00     0.002 A 
BRANCH  10  22
ATOM     22  N   UNL     1       3.710  -3.213  -0.048  1.00  0.00    -0.384 N 
ATOM     23  H   UNL     1       3.203  -4.110  -0.048  1.00  0.00     0.158 HD
ATOM     24  H   UNL     1       4.740  -3.187  -0.057  1.00  0.00     0.158 HD
ENDBRANCH  10  22
BRANCH  12  25
ATOM     25  C   UNL     1       4.803  -0.482  -0.043  1.00  0.00     0.049 A 
ATOM     26  C   UNL     1       5.588  -0.809  -1.141  1.00  0.00     0.028 A 
ATOM     27  C   UNL     1       5.371   0.172   1.042  1.00  0.00     0.028 A 
ATOM     28  C   UNL     1       6.931  -0.489  -1.149  1.00  0.00     0.017 A 
ATOM     29  C   UNL     1       6.716   0.486   1.032  1.00  0.00     0.017 A 
ATOM     30  C   UNL     1       7.495   0.158  -0.063  1.00  0.00     0.013 A 
ATOM     31  I   UNL     1       9.533   0.642  -0.079  1.00  0.00    -0.044 I 
ENDBRANCH  12  25
ENDBRANCH   2   9
TORSDOF 5
