REMARK SMILES CC1=N[C@]2(O)c3ccccc3C(=O)[C@]2(O)C1C(=O)OCCc1ccccc1
REMARK SMILES IDX 19 1 17 2 18 3 16 4 1 5 2 6 3 7 14 8 4 9 12 10 6 11 13 12
REMARK SMILES IDX 11 13 7 14 10 15 8 16 9 17 15 18 5 20 20 22 21 23 22 24
REMARK SMILES IDX 27 25 23 26 26 27 24 28 25 29
REMARK H PARENT 15 19 5 21
REMARK Flexibility Score: inf
ROOT
ATOM      1  O   UNL     1       5.473   4.512  -1.043  1.00  0.00    -0.465 OA
ENDROOT
BRANCH   1   2
ATOM      2  C   UNL     1       5.156   3.444  -1.806  1.00  0.00     0.318 C 
ATOM      3  O   UNL     1       5.678   3.297  -2.895  1.00  0.00    -0.251 OA
BRANCH   2   4
ATOM      4  C   UNL     1       4.218   2.497  -1.339  1.00  0.00     0.188 C 
ATOM      5  C   UNL     1       4.338   1.021  -3.362  1.00  0.00     0.062 C 
ATOM      6  C   UNL     1       3.819   1.397  -1.998  1.00  0.00     0.031 C 
ATOM      7  N   UNL     1       2.905   0.656  -1.323  1.00  0.00    -0.251 NA
ATOM      8  C   UNL     1       3.493   2.550  -0.012  1.00  0.00     0.200 C 
ATOM      9  C   UNL     1       2.604   1.288  -0.016  1.00  0.00     0.221 C 
ATOM     10  C   UNL     1       2.530   3.711  -0.001  1.00  0.00     0.201 C 
ATOM     11  C   UNL     1       1.177   1.780   0.000  1.00  0.00     0.020 A 
ATOM     12  O   UNL     1       2.833   4.885  -0.001  1.00  0.00    -0.291 OA
ATOM     13  C   UNL     1       1.160   3.174   0.008  1.00  0.00     0.029 A 
ATOM     14  C   UNL     1      -0.013   1.076   0.008  1.00  0.00     0.009 A 
ATOM     15  C   UNL     1      -0.073   3.846   0.023  1.00  0.00     0.012 A 
ATOM     16  C   UNL     1      -1.221   1.747   0.017  1.00  0.00     0.001 A 
ATOM     17  C   UNL     1      -1.249   3.131   0.031  1.00  0.00     0.001 A 
BRANCH   8  18
ATOM     18  O   UNL     1       4.393   2.582   1.098  1.00  0.00    -0.376 OA
ATOM     19  H   UNL     1       4.973   3.379   1.003  1.00  0.00     0.212 HD
ENDBRANCH   8  18
BRANCH   9  20
ATOM     20  O   UNL     1       2.884   0.434   1.096  1.00  0.00    -0.363 OA
ATOM     21  H   UNL     1       2.731   0.946   1.929  1.00  0.00     0.214 HD
ENDBRANCH   9  20
ENDBRANCH   2   4
ENDBRANCH   1   2
BRANCH   1  22
ATOM     22  C   UNL     1       6.429   5.429  -1.578  1.00  0.00     0.237 C 
BRANCH  22  23
ATOM     23  C   UNL     1       6.659   6.566  -0.580  1.00  0.00     0.077 C 
BRANCH  23  24
ATOM     24  C   UNL     1       7.667   7.533  -1.143  1.00  0.00    -0.045 A 
ATOM     25  C   UNL     1       7.245   8.603  -1.911  1.00  0.00     0.004 A 
ATOM     26  C   UNL     1       9.014   7.354  -0.889  1.00  0.00     0.004 A 
ATOM     27  C   UNL     1       8.170   9.491  -2.427  1.00  0.00     0.000 A 
ATOM     28  C   UNL     1       9.939   8.239  -1.410  1.00  0.00     0.000 A 
ATOM     29  C   UNL     1       9.517   9.309  -2.177  1.00  0.00     0.000 A 
ENDBRANCH  23  24
ENDBRANCH  22  23
ENDBRANCH   1  22
TORSDOF 7
