REMARK SMILES COc1ccc2[nH]cc(CC[NH2+]C[C@H]3C(=O)O[C@@H]4CC5=CCC[C@H](C)[C@@]5(C)[C@@H](O)[C@@H]43)c2c1
REMARK SMILES IDX 12 1 13 4 14 5 25 6 24 7 26 8 23 9 20 10 28 11 27 12 22 13
REMARK SMILES IDX 21 14 19 15 30 16 18 17 17 18 15 19 16 20 29 21 11 23 10 24
REMARK SMILES IDX 9 25 31 26 8 27 6 28 32 29 7 30 5 31 3 32 4 34 2 35 1 36
REMARK H PARENT 12 2 12 3 29 22 7 33
REMARK Flexibility Score: inf
ROOT
ATOM      1  N   UNL     1       3.881  -1.087  -0.491  1.00  0.00    -0.345 N 
ATOM      2  H   UNL     1       3.170  -1.812  -0.660  1.00  0.00     0.346 HD
ATOM      3  H   UNL     1       4.268  -0.776  -1.393  1.00  0.00     0.346 HD
ENDROOT
BRANCH   1   4
ATOM      4  C   UNL     1       3.257   0.059   0.196  1.00  0.00     0.276 C 
BRANCH   4   5
ATOM      5  C   UNL     1       2.136   0.625  -0.686  1.00  0.00     0.163 C 
ATOM      6  C   UNL     1       2.683   5.295  -2.751  1.00  0.00     0.008 C 
ATOM      7  C   UNL     1       1.353   5.123  -2.010  1.00  0.00    -0.001 C 
ATOM      8  C   UNL     1       1.105   3.635  -1.782  1.00  0.00     0.017 C 
ATOM      9  C   UNL     1       0.238   5.748  -2.846  1.00  0.00     0.008 C 
ATOM     10  C   UNL     1      -0.356   3.322  -1.618  1.00  0.00    -0.062 C 
ATOM     11  C   UNL     1       1.849   3.176  -0.532  1.00  0.00     0.132 C 
ATOM     12  C   UNL     1       1.639   2.889  -3.010  1.00  0.00     0.019 C 
ATOM     13  C   UNL     1      -1.073   5.638  -2.061  1.00  0.00     0.027 C 
ATOM     14  C   UNL     1      -1.315   4.191  -1.737  1.00  0.00    -0.027 C 
ATOM     15  C   UNL     1      -0.717   1.889  -1.287  1.00  0.00     0.077 C 
ATOM     16  C   UNL     1       1.474   1.825  -0.002  1.00  0.00     0.080 C 
ATOM     17  C   UNL     1      -0.018   1.473   0.010  1.00  0.00     0.187 C 
ATOM     18  O   UNL     1       0.002  -0.004   0.002  1.00  0.00    -0.461 OA
ATOM     19  C   UNL     1       1.009  -0.390  -0.808  1.00  0.00     0.315 C 
ATOM     20  O   UNL     1       1.018  -1.373  -1.510  1.00  0.00    -0.252 OA
BRANCH  11  21
ATOM     21  O   UNL     1       1.641   4.133   0.515  1.00  0.00    -0.392 OA
ATOM     22  H   UNL     1       0.674   4.204   0.716  1.00  0.00     0.211 HD
ENDBRANCH  11  21
ENDBRANCH   4   5
ENDBRANCH   1   4
BRANCH   1  23
ATOM     23  C   UNL     1       4.965  -1.651   0.336  1.00  0.00     0.265 C 
BRANCH  23  24
ATOM     24  C   UNL     1       5.592  -2.837  -0.401  1.00  0.00     0.099 C 
BRANCH  24  25
ATOM     25  C   UNL     1       6.701  -3.419   0.437  1.00  0.00    -0.017 A 
ATOM     26  C   UNL     1       6.557  -4.410   1.506  1.00  0.00     0.006 A 
ATOM     27  C   UNL     1       8.009  -3.132   0.341  1.00  0.00     0.087 A 
ATOM     28  C   UNL     1       7.854  -4.648   1.995  1.00  0.00     0.046 A 
ATOM     29  C   UNL     1       5.467  -5.085   2.061  1.00  0.00     0.057 A 
ATOM     30  N   UNL     1       8.714  -3.852   1.266  1.00  0.00    -0.361 N 
ATOM     31  C   UNL     1       8.040  -5.556   3.031  1.00  0.00     0.030 A 
ATOM     32  C   UNL     1       5.673  -5.983   3.090  1.00  0.00     0.119 A 
ATOM     33  H   UNL     1       9.734  -3.807   1.400  1.00  0.00     0.166 HD
ATOM     34  C   UNL     1       6.959  -6.215   3.571  1.00  0.00     0.048 A 
BRANCH  32  35
ATOM     35  O   UNL     1       4.616  -6.642   3.634  1.00  0.00    -0.497 OA
ATOM     36  C   UNL     1       4.899  -7.557   4.695  1.00  0.00     0.278 C 
ENDBRANCH  32  35
ENDBRANCH  24  25
ENDBRANCH  23  24
ENDBRANCH   1  23
TORSDOF 7
