REMARK SMILES CSCc1nc(=O)c2c(C)c(C(=O)Nc3ccnn3C(C)C)sc2[nH]1
REMARK SMILES IDX 10 1 9 2 8 3 6 4 7 5 5 6 4 7 25 8 24 9 23 10 11 11 12 13
REMARK SMILES IDX 13 14 14 15 15 17 19 18 16 19 18 20 17 21 20 22 21 23 22 24
REMARK SMILES IDX 3 25 2 26 1 27
REMARK H PARENT 25 12 14 16
REMARK Flexibility Score: inf
ROOT
ATOM      1  C   UNL     1       2.476  -0.274  -0.036  1.00  0.00     0.047 C 
ATOM      2  C   UNL     1       1.079  -0.841  -0.018  1.00  0.00    -0.012 A 
ATOM      3  C   UNL     1       0.885  -2.224  -0.019  1.00  0.00     0.080 A 
ATOM      4  C   UNL     1       1.891  -3.310  -0.035  1.00  0.00     0.281 A 
ATOM      5  O   UNL     1       3.083  -3.058  -0.046  1.00  0.00    -0.267 OA
ATOM      6  N   UNL     1       1.454  -4.585  -0.039  1.00  0.00    -0.195 NA
ATOM      7  C   UNL     1       0.131  -4.877  -0.028  1.00  0.00     0.121 A 
ATOM      8  N   UNL     1      -0.782  -3.944  -0.013  1.00  0.00    -0.334 N 
ATOM      9  C   UNL     1      -0.461  -2.657  -0.009  1.00  0.00     0.108 A 
ATOM     10  S   UNL     1      -1.377  -1.137   0.009  1.00  0.00    -0.112 S 
ATOM     11  C   UNL     1       0.002  -0.004   0.002  1.00  0.00     0.098 A 
ATOM     12  H   UNL     1      -1.776  -4.214  -0.005  1.00  0.00     0.169 HD
ENDROOT
BRANCH  11  13
ATOM     13  C   UNL     1      -0.018   1.462   0.010  1.00  0.00     0.267 C 
ATOM     14  O   UNL     1       1.028   2.084   0.003  1.00  0.00    -0.268 OA
ATOM     15  N   UNL     1      -1.194   2.120   0.019  1.00  0.00    -0.306 N 
ATOM     16  H   UNL     1      -2.079   1.593   0.021  1.00  0.00     0.171 HD
BRANCH  15  17
ATOM     17  C   UNL     1      -1.213   3.513   0.027  1.00  0.00     0.131 A 
ATOM     18  N   UNL     1      -2.319   4.301   0.036  1.00  0.00    -0.247 N 
ATOM     19  C   UNL     1      -0.126   4.333   0.032  1.00  0.00     0.069 A 
ATOM     20  N   UNL     1      -1.893   5.636   0.042  1.00  0.00    -0.179 NA
ATOM     21  C   UNL     1      -0.585   5.653   0.035  1.00  0.00     0.137 A 
BRANCH  18  22
ATOM     22  C   UNL     1      -3.709   3.838   0.041  1.00  0.00     0.103 C 
ATOM     23  C   UNL     1      -4.415   4.355   1.296  1.00  0.00     0.033 C 
ATOM     24  C   UNL     1      -4.426   4.368  -1.202  1.00  0.00     0.033 C 
ENDBRANCH  18  22
ENDBRANCH  15  17
ENDBRANCH  11  13
BRANCH   7  25
ATOM     25  C   UNL     1      -0.300  -6.322  -0.032  1.00  0.00     0.144 C 
BRANCH  25  26
ATOM     26  S   UNL     1      -2.111  -6.413  -0.015  1.00  0.00    -0.157 SA
ATOM     27  C   UNL     1      -2.461  -8.193  -0.023  1.00  0.00     0.085 C 
ENDBRANCH  25  26
ENDBRANCH   7  25
TORSDOF 5
