REMARK SMILES O=S(=O)(NC1=Nc2[nH]c3ccccc3c2[C@H](c2ccccc2)N1)c1ccc(/N=C/c2ccccc2)cc1
REMARK SMILES IDX 27 1 26 2 25 3 24 4 37 5 36 6 28 7 29 8 30 9 33 10 34 11
REMARK SMILES IDX 32 12 35 13 31 14 2 15 1 16 3 17 4 18 5 19 23 21 6 22 16 23
REMARK SMILES IDX 7 25 15 26 8 27 14 28 9 29 13 31 10 32 12 33 11 34 17 35
REMARK SMILES IDX 22 36 18 37 21 38 19 39 20 40
REMARK H PARENT 4 20 23 24 8 30
REMARK Flexibility Score: inf
ROOT
ATOM      1  C   UNL     1       1.959   8.810   4.415  1.00  0.00     0.063 A 
ATOM      2  C   UNL     1       3.243   9.304   4.175  1.00  0.00     0.030 A 
ATOM      3  C   UNL     1       3.712   9.396   2.882  1.00  0.00     0.024 A 
ATOM      4  C   UNL     1       2.914   9.001   1.823  1.00  0.00     0.088 A 
ATOM      5  C   UNL     1       1.639   8.516   2.053  1.00  0.00     0.024 A 
ATOM      6  C   UNL     1       1.159   8.413   3.342  1.00  0.00     0.030 A 
ENDROOT
BRANCH   1   7
ATOM      7  N   UNL     1       1.487   8.715   5.696  1.00  0.00    -0.256 NA
ATOM      8  C   UNL     1       0.280   9.115   5.977  1.00  0.00     0.119 C 
BRANCH   8   9
ATOM      9  C   UNL     1      -0.228   9.013   7.356  1.00  0.00    -0.007 A 
ATOM     10  C   UNL     1      -1.184   8.820   9.948  1.00  0.00     0.000 A 
ATOM     11  C   UNL     1       0.100   8.394   9.654  1.00  0.00     0.001 A 
ATOM     12  C   UNL     1      -1.992   9.342   8.954  1.00  0.00     0.001 A 
ATOM     13  C   UNL     1       0.581   8.482   8.364  1.00  0.00     0.010 A 
ATOM     14  C   UNL     1      -1.524   9.441   7.661  1.00  0.00     0.010 A 
ENDBRANCH   8   9
ENDBRANCH   1   7
BRANCH   4  15
ATOM     15  S   UNL     1       3.522   9.123   0.173  1.00  0.00     0.264 S 
ATOM     16  O   UNL     1       4.533  10.121   0.186  1.00  0.00    -0.201 OA
ATOM     17  O   UNL     1       2.384   9.202  -0.674  1.00  0.00    -0.201 OA
BRANCH  15  18
ATOM     18  N   UNL     1       4.275   7.690  -0.178  1.00  0.00    -0.249 N 
ATOM     19  C   UNL     1       3.547   6.529  -0.236  1.00  0.00     0.212 C 
ATOM     20  H   UNL     1       5.290   7.671  -0.353  1.00  0.00     0.183 HD
ATOM     21  N   UNL     1       4.192   5.354  -0.530  1.00  0.00    -0.344 N 
ATOM     22  N   UNL     1       2.250   6.577  -0.009  1.00  0.00    -0.196 NA
ATOM     23  C   UNL     1       3.679   4.079   0.006  1.00  0.00     0.147 C 
ATOM     24  H   UNL     1       5.034   5.363  -1.123  1.00  0.00     0.164 HD
ATOM     25  C   UNL     1       1.542   5.410   0.008  1.00  0.00     0.140 A 
ATOM     26  C   UNL     1       2.174   4.194   0.004  1.00  0.00     0.031 A 
ATOM     27  N   UNL     1       0.190   5.210   0.026  1.00  0.00    -0.339 N 
ATOM     28  C   UNL     1       1.151   3.168   0.007  1.00  0.00     0.007 A 
ATOM     29  C   UNL     1      -0.083   3.853   0.022  1.00  0.00     0.047 A 
ATOM     30  H   UNL     1      -0.519   5.957   0.040  1.00  0.00     0.168 HD
ATOM     31  C   UNL     1       1.164   1.769   0.000  1.00  0.00     0.011 A 
ATOM     32  C   UNL     1      -1.266   3.126   0.030  1.00  0.00     0.027 A 
ATOM     33  C   UNL     1      -0.013   1.076   0.008  1.00  0.00     0.001 A 
ATOM     34  C   UNL     1      -1.227   1.748   0.017  1.00  0.00     0.002 A 
BRANCH  23  35
ATOM     35  C   UNL     1       4.179   3.870   1.412  1.00  0.00    -0.021 A 
ATOM     36  C   UNL     1       4.515   2.600   1.844  1.00  0.00     0.006 A 
ATOM     37  C   UNL     1       4.307   4.948   2.268  1.00  0.00     0.006 A 
ATOM     38  C   UNL     1       4.974   2.408   3.134  1.00  0.00     0.000 A 
ATOM     39  C   UNL     1       4.762   4.755   3.559  1.00  0.00     0.000 A 
ATOM     40  C   UNL     1       5.097   3.486   3.992  1.00  0.00     0.000 A 
ENDBRANCH  23  35
ENDBRANCH  15  18
ENDBRANCH   4  15
TORSDOF 5
