REMARK SMILES C#CCCCn1c(Sc2cc(OC)ccc2I)nc2c(N)ncnc21
REMARK SMILES IDX 7 1 18 2 19 3 20 4 22 5 23 6 24 7 25 8 6 9 8 10 9 11 11 12
REMARK SMILES IDX 10 13 14 14 15 15 16 16 17 17 12 18 13 19 5 20 4 21 3 22
REMARK SMILES IDX 2 23 1 24 21 25
REMARK H PARENT 21 26 21 27
REMARK Flexibility Score: inf
ROOT
ATOM      1  C   UNL     1       1.706   2.079  -0.109  1.00  0.00     0.175 A 
ATOM      2  N   UNL     1       2.633   1.168  -0.274  1.00  0.00    -0.216 NA
ATOM      3  C   UNL     1       3.849   1.767  -0.325  1.00  0.00     0.151 A 
ATOM      4  C   UNL     1       5.167   1.307  -0.483  1.00  0.00     0.155 A 
ATOM      5  N   UNL     1       6.153   2.199  -0.487  1.00  0.00    -0.217 NA
ATOM      6  C   UNL     1       5.908   3.489  -0.347  1.00  0.00     0.226 A 
ATOM      7  N   UNL     1       4.690   3.964  -0.196  1.00  0.00    -0.216 NA
ATOM      8  C   UNL     1       3.642   3.148  -0.180  1.00  0.00     0.166 A 
ATOM      9  N   UNL     1       2.283   3.320  -0.051  1.00  0.00    -0.303 N 
ENDROOT
BRANCH   1  10
ATOM     10  S   UNL     1      -0.022   1.758   0.012  1.00  0.00    -0.050 SA
BRANCH  10  11
ATOM     11  C   UNL     1      -0.033   0.024  -0.305  1.00  0.00     0.032 A 
ATOM     12  C   UNL     1      -0.206  -2.235   0.490  1.00  0.00     0.120 A 
ATOM     13  C   UNL     1      -0.198  -0.872   0.743  1.00  0.00     0.063 A 
ATOM     14  C   UNL     1      -0.050  -2.700  -0.809  1.00  0.00     0.047 A 
ATOM     15  C   UNL     1       0.114  -1.807  -1.850  1.00  0.00     0.020 A 
ATOM     16  C   UNL     1       0.117  -0.447  -1.604  1.00  0.00     0.027 A 
ATOM     17  I   UNL     1       0.357   0.904  -3.187  1.00  0.00    -0.043 I 
BRANCH  12  18
ATOM     18  O   UNL     1      -0.368  -3.115   1.513  1.00  0.00    -0.497 OA
ATOM     19  C   UNL     1      -0.366  -4.505   1.179  1.00  0.00     0.278 C 
ENDBRANCH  12  18
ENDBRANCH  10  11
ENDBRANCH   1  10
BRANCH   9  20
ATOM     20  C   UNL     1       1.581   4.595   0.119  1.00  0.00     0.127 C 
BRANCH  20  21
ATOM     21  C   UNL     1       1.461   4.915   1.610  1.00  0.00     0.035 C 
BRANCH  21  22
ATOM     22  C   UNL     1       0.729   6.247   1.788  1.00  0.00     0.091 C 
BRANCH  22  23
ATOM     23  C   UNL     1       0.612   6.555   3.222  1.00  0.00    -0.107 C 
ATOM     24  C   UNL     1       0.519   6.801   4.367  1.00  0.00     0.004 C 
ENDBRANCH  22  23
ENDBRANCH  21  22
ENDBRANCH  20  21
ENDBRANCH   9  20
BRANCH   4  25
ATOM     25  N   UNL     1       5.434  -0.044  -0.630  1.00  0.00    -0.382 N 
ATOM     26  H   UNL     1       4.654  -0.718  -0.623  1.00  0.00     0.158 HD
ATOM     27  H   UNL     1       6.402  -0.375  -0.745  1.00  0.00     0.158 HD
ENDBRANCH   4  25
TORSDOF 8
