REMARK SMILES NC1=[NH+]c2nc3ccccc3n2[C@H](c2cn(-c3ccccc3)nc2-c2cccc(Br)c2)N1
REMARK SMILES IDX 16 1 15 2 14 3 24 4 23 5 17 6 20 7 21 8 19 9 22 10 18 11
REMARK SMILES IDX 25 12 31 13 26 14 29 15 27 16 28 17 30 18 13 19 12 20 32 21
REMARK SMILES IDX 4 22 11 23 2 24 3 26 5 27 6 28 10 29 1 30 7 32 9 33 8 36
REMARK H PARENT 32 25 3 31 1 34 1 35
REMARK Flexibility Score: inf
ROOT
ATOM      1  N   UNL     1      -0.050   5.243   0.050  1.00  0.00    -0.240 N 
ATOM      2  C   UNL     1      -1.167   6.009   0.163  1.00  0.00     0.125 A 
ATOM      3  C   UNL     1      -0.788   7.304   0.107  1.00  0.00     0.059 A 
ATOM      4  C   UNL     1       0.611   7.340  -0.054  1.00  0.00     0.102 A 
ATOM      5  N   UNL     1       1.050   6.100  -0.088  1.00  0.00    -0.167 NA
ENDROOT
BRANCH   1   6
ATOM      6  C   UNL     1      -0.007   3.843   0.063  1.00  0.00     0.065 A 
ATOM      7  C   UNL     1       0.078   1.078   0.088  1.00  0.00     0.000 A 
ATOM      8  C   UNL     1       1.247   1.803  -0.055  1.00  0.00     0.002 A 
ATOM      9  C   UNL     1      -1.133   1.732   0.213  1.00  0.00     0.002 A 
ATOM     10  C   UNL     1       1.208   3.183  -0.068  1.00  0.00     0.028 A 
ATOM     11  C   UNL     1      -1.179   3.112   0.206  1.00  0.00     0.028 A 
ENDBRANCH   1   6
BRANCH   4  12
ATOM     12  C   UNL     1       1.444   8.563  -0.166  1.00  0.00     0.004 A 
ATOM     13  C   UNL     1       2.656   8.648   0.517  1.00  0.00     0.026 A 
ATOM     14  C   UNL     1       1.020   9.628  -0.959  1.00  0.00     0.010 A 
ATOM     15  C   UNL     1       3.428   9.789   0.408  1.00  0.00     0.018 A 
ATOM     16  C   UNL     1       1.796  10.765  -1.056  1.00  0.00     0.002 A 
ATOM     17  C   UNL     1       2.999  10.845  -0.376  1.00  0.00     0.016 A 
ATOM     18  Br  UNL     1       5.073   9.906   1.333  1.00  0.00    -0.051 Br
ENDBRANCH   4  12
BRANCH   3  19
ATOM     19  C   UNL     1      -1.702   8.500   0.196  1.00  0.00     0.299 C 
ATOM     20  N   UNL     1      -3.100   8.073   0.068  1.00  0.00    -0.226 N 
ATOM     21  N   UNL     1      -1.570   9.137   1.519  1.00  0.00    -0.277 N 
ATOM     22  C   UNL     1      -3.894   7.846   1.183  1.00  0.00     0.329 A 
ATOM     23  C   UNL     1      -3.860   7.824  -1.033  1.00  0.00     0.118 A 
ATOM     24  C   UNL     1      -2.257   8.632   2.591  1.00  0.00     0.283 C 
ATOM     25  H   UNL     1      -0.963   9.961   1.636  1.00  0.00     0.224 HD
ATOM     26  N   UNL     1      -3.419   8.021   2.437  1.00  0.00    -0.231 N 
ATOM     27  N   UNL     1      -5.082   7.444   0.797  1.00  0.00    -0.126 NA
ATOM     28  C   UNL     1      -5.131   7.417  -0.549  1.00  0.00     0.145 A 
ATOM     29  C   UNL     1      -3.603   7.897  -2.396  1.00  0.00     0.040 A 
ATOM     30  N   UNL     1      -1.729   8.764   3.846  1.00  0.00    -0.322 N 
ATOM     31  H   UNL     1      -3.950   7.686   3.253  1.00  0.00     0.233 HD
ATOM     32  C   UNL     1      -6.160   7.077  -1.436  1.00  0.00     0.042 A 
ATOM     33  C   UNL     1      -4.637   7.556  -3.254  1.00  0.00     0.003 A 
ATOM     34  H   UNL     1      -0.825   9.237   3.987  1.00  0.00     0.217 HD
ATOM     35  H   UNL     1      -2.241   8.386   4.657  1.00  0.00     0.217 HD
ATOM     36  C   UNL     1      -5.878   7.159  -2.788  1.00  0.00     0.003 A 
ENDBRANCH   3  19
TORSDOF 3
