REMARK SMILES Cc1ccc([C@H]2c3[nH]c4ccccc4c3C[C@H]3C(=O)N(c4ccccc4C(=O)NC4CCCC4)C(=O)N23)cc1
REMARK SMILES IDX 21 1 22 2 23 3 24 4 25 5 26 6 20 7 6 8 37 9 7 10 17 11 35 12
REMARK SMILES IDX 8 13 15 14 16 15 18 16 36 17 9 18 14 20 19 21 10 22 13 23
REMARK SMILES IDX 11 24 12 25 5 26 1 27 2 28 39 29 3 30 38 31 4 32 27 33 28 34
REMARK SMILES IDX 29 35 30 37 34 38 31 39 33 40 32 41
REMARK H PARENT 8 19 29 36
REMARK Flexibility Score: inf
ROOT
ATOM      1  C   UNL     1      -2.417   1.540   0.001  1.00  0.00     0.066 A 
ATOM      2  C   UNL     1      -3.079   1.279   1.193  1.00  0.00     0.028 A 
ATOM      3  C   UNL     1      -4.382   0.822   1.175  1.00  0.00     0.002 A 
ATOM      4  C   UNL     1      -5.034   0.610  -0.029  1.00  0.00     0.001 A 
ATOM      5  C   UNL     1      -4.390   0.859  -1.222  1.00  0.00     0.016 A 
ATOM      6  C   UNL     1      -3.074   1.327  -1.219  1.00  0.00     0.064 A 
ENDROOT
BRANCH   1   7
ATOM      7  N   UNL     1      -1.101   2.006   0.017  1.00  0.00    -0.229 N 
ATOM      8  C   UNL     1       1.335   4.720   0.188  1.00  0.00     0.165 C 
ATOM      9  N   UNL     1       0.560   3.478   0.078  1.00  0.00    -0.299 N 
ATOM     10  C   UNL     1       2.482   4.423   1.133  1.00  0.00     0.047 A 
ATOM     11  C   UNL     1       1.182   2.138   0.002  1.00  0.00     0.182 C 
ATOM     12  C   UNL     1      -0.763   3.304   0.047  1.00  0.00     0.332 C 
ATOM     13  N   UNL     1       3.369   5.334   1.641  1.00  0.00    -0.356 N 
ATOM     14  C   UNL     1       2.768   3.188   1.597  1.00  0.00    -0.014 A 
ATOM     15  C   UNL     1       2.006   1.926   1.278  1.00  0.00     0.073 C 
ATOM     16  C   UNL     1      -0.014   1.208   0.009  1.00  0.00     0.258 C 
ATOM     17  O   UNL     1      -1.567   4.215   0.042  1.00  0.00    -0.247 OA
ATOM     18  C   UNL     1       4.266   4.701   2.451  1.00  0.00     0.046 A 
ATOM     19  H   UNL     1       3.360   6.345   1.442  1.00  0.00     0.166 HD
ATOM     20  C   UNL     1       3.929   3.323   2.457  1.00  0.00     0.003 A 
ATOM     21  O   UNL     1       0.002  -0.004   0.002  1.00  0.00    -0.272 OA
ATOM     22  C   UNL     1       5.349   5.169   3.193  1.00  0.00     0.026 A 
ATOM     23  C   UNL     1       4.668   2.397   3.200  1.00  0.00     0.010 A 
ATOM     24  C   UNL     1       6.062   4.232   3.920  1.00  0.00     0.002 A 
ATOM     25  C   UNL     1       5.730   2.887   3.921  1.00  0.00     0.001 A 
BRANCH   8  26
ATOM     26  C   UNL     1       0.472   5.820   0.750  1.00  0.00    -0.019 A 
ATOM     27  C   UNL     1      -1.972   8.940   2.343  1.00  0.00     0.044 C 
ATOM     28  C   UNL     1      -1.110   7.840   1.781  1.00  0.00    -0.051 A 
ATOM     29  C   UNL     1      -1.209   6.557   2.287  1.00  0.00     0.004 A 
ATOM     30  C   UNL     1      -0.220   8.112   0.758  1.00  0.00     0.004 A 
ATOM     31  C   UNL     1      -0.421   5.546   1.768  1.00  0.00     0.006 A 
ATOM     32  C   UNL     1       0.571   7.103   0.243  1.00  0.00     0.006 A 
ENDBRANCH   8  26
ENDBRANCH   1   7
BRANCH   6  33
ATOM     33  C   UNL     1      -2.379   1.595  -2.493  1.00  0.00     0.253 C 
ATOM     34  O   UNL     1      -1.233   2.001  -2.486  1.00  0.00    -0.269 OA
ATOM     35  N   UNL     1      -3.014   1.389  -3.663  1.00  0.00    -0.349 N 
ATOM     36  H   UNL     1      -3.985   1.044  -3.669  1.00  0.00     0.164 HD
BRANCH  35  37
ATOM     37  C   UNL     1      -2.324   1.655  -4.928  1.00  0.00     0.082 C 
ATOM     38  C   UNL     1      -2.952   0.819  -6.057  1.00  0.00     0.025 C 
ATOM     39  C   UNL     1      -2.499   3.135  -5.324  1.00  0.00     0.025 C 
ATOM     40  C   UNL     1      -3.488   1.821  -7.101  1.00  0.00     0.002 C 
ATOM     41  C   UNL     1      -2.647   3.100  -6.867  1.00  0.00     0.002 C 
ENDBRANCH  35  37
ENDBRANCH   6  33
TORSDOF 4
