REMARK SMILES c1ccc(/N=N/[C@]2(c3ccccc3)CC(c3ccccc3)=NN(c3ccccc3)[C@@H]2NNc2ccccc2)cc1
REMARK SMILES IDX 15 1 22 2 23 3 30 4 7 5 14 6 16 7 19 8 20 9 18 10 21 11
REMARK SMILES IDX 17 12 8 13 13 14 9 15 12 16 10 17 11 18 6 19 5 20 4 21 39 22
REMARK SMILES IDX 3 23 40 24 2 25 1 26 24 27 29 28 25 29 28 30 26 31 27 32
REMARK SMILES IDX 31 33 32 35 33 37 38 38 34 39 37 40 35 41 36 42
REMARK H PARENT 31 34 32 36
REMARK Flexibility Score: inf
ROOT
ATOM      1  C   UNL     1       7.411   4.074   0.473  1.00  0.00     0.071 C 
ATOM      2  N   UNL     1       6.776   3.408   1.376  1.00  0.00    -0.175 NA
ATOM      3  N   UNL     1       5.433   3.041   1.221  1.00  0.00    -0.243 N 
ATOM      4  C   UNL     1       4.648   3.664   0.144  1.00  0.00     0.227 C 
ATOM      5  C   UNL     1       5.530   3.693  -1.113  1.00  0.00     0.149 C 
ATOM      6  C   UNL     1       6.779   4.524  -0.813  1.00  0.00     0.100 C 
ENDROOT
BRANCH   1   7
ATOM      7  C   UNL     1       8.826   4.409   0.714  1.00  0.00    -0.002 A 
ATOM      8  C   UNL     1      11.485   5.038   1.166  1.00  0.00     0.000 A 
ATOM      9  C   UNL     1      10.873   5.438  -0.009  1.00  0.00     0.001 A 
ATOM     10  C   UNL     1      10.775   4.325   2.116  1.00  0.00     0.001 A 
ATOM     11  C   UNL     1       9.551   5.124  -0.243  1.00  0.00     0.010 A 
ATOM     12  C   UNL     1       9.451   4.008   1.897  1.00  0.00     0.010 A 
ENDBRANCH   1   7
BRANCH   5  13
ATOM     13  C   UNL     1       4.765   4.315  -2.253  1.00  0.00    -0.015 A 
ATOM     14  C   UNL     1       3.579   4.981  -2.008  1.00  0.00     0.006 A 
ATOM     15  C   UNL     1       5.253   4.224  -3.544  1.00  0.00     0.006 A 
ATOM     16  C   UNL     1       2.878   5.552  -3.054  1.00  0.00     0.000 A 
ATOM     17  C   UNL     1       4.550   4.792  -4.590  1.00  0.00     0.000 A 
ATOM     18  C   UNL     1       3.363   5.457  -4.345  1.00  0.00     0.000 A 
ENDBRANCH   5  13
BRANCH   5  19
ATOM     19  N   UNL     1       5.922   2.327  -1.471  1.00  0.00    -0.173 NA
ATOM     20  N   UNL     1       5.662   1.883  -2.599  1.00  0.00    -0.155 NA
BRANCH  20  21
ATOM     21  C   UNL     1       6.028   0.606  -2.933  1.00  0.00     0.085 A 
ATOM     22  C   UNL     1       5.737   0.102  -4.203  1.00  0.00     0.030 A 
ATOM     23  C   UNL     1       6.700  -0.196  -2.009  1.00  0.00     0.030 A 
ATOM     24  C   UNL     1       6.109  -1.185  -4.533  1.00  0.00     0.002 A 
ATOM     25  C   UNL     1       7.062  -1.483  -2.350  1.00  0.00     0.002 A 
ATOM     26  C   UNL     1       6.770  -1.976  -3.610  1.00  0.00     0.000 A 
ENDBRANCH  20  21
ENDBRANCH   5  19
BRANCH   3  27
ATOM     27  C   UNL     1       4.850   2.102   2.073  1.00  0.00     0.061 A 
ATOM     28  C   UNL     1       5.486   0.890   2.313  1.00  0.00     0.028 A 
ATOM     29  C   UNL     1       3.634   2.380   2.687  1.00  0.00     0.028 A 
ATOM     30  C   UNL     1       4.906  -0.036   3.157  1.00  0.00     0.002 A 
ATOM     31  C   UNL     1       3.058   1.446   3.525  1.00  0.00     0.002 A 
ATOM     32  C   UNL     1       3.693   0.241   3.762  1.00  0.00     0.000 A 
ENDBRANCH   3  27
BRANCH   4  33
ATOM     33  N   UNL     1       3.438   2.872  -0.114  1.00  0.00    -0.210 NA
ATOM     34  H   UNL     1       2.803   2.950   0.693  1.00  0.00     0.150 HD
BRANCH  33  35
ATOM     35  N   UNL     1       3.747   1.557  -0.317  1.00  0.00    -0.319 N 
ATOM     36  H   UNL     1       4.716   1.231  -0.191  1.00  0.00     0.181 HD
BRANCH  35  37
ATOM     37  C   UNL     1       2.750   0.656  -0.694  1.00  0.00     0.049 A 
ATOM     38  C   UNL     1       3.062  -0.682  -0.901  1.00  0.00     0.027 A 
ATOM     39  C   UNL     1       1.443   1.094  -0.864  1.00  0.00     0.027 A 
ATOM     40  C   UNL     1       2.074  -1.571  -1.275  1.00  0.00     0.002 A 
ATOM     41  C   UNL     1       0.459   0.200  -1.238  1.00  0.00     0.002 A 
ATOM     42  C   UNL     1       0.774  -1.131  -1.443  1.00  0.00     0.000 A 
ENDBRANCH  35  37
ENDBRANCH  33  35
ENDBRANCH   4  33
TORSDOF 8
