REMARK SMILES CC(C)(C)OC(=O)N[C@@H](Cc1ccccc1)C[C@H](O)[C@H](Cc1ccccc1)NC(=O)c1ccc(O)cc1
REMARK SMILES IDX 17 1 9 2 8 3 6 4 7 5 5 7 2 8 1 9 3 10 4 11 10 12 11 13 16 14
REMARK SMILES IDX 12 15 15 16 13 17 14 18 18 19 20 20 21 21 22 22 27 23 23 24
REMARK SMILES IDX 26 25 24 26 25 27 28 28 29 29 30 31 31 32 37 33 32 34 36 35
REMARK SMILES IDX 33 36 34 37 35 38 19 40
REMARK H PARENT 8 6 28 30 35 39 19 41
REMARK Flexibility Score: inf
ROOT
ATOM      1  C   UNL     1       4.121   5.093  -1.455  1.00  0.00     0.059 C 
ENDROOT
BRANCH   1   2
ATOM      2  C   UNL     1       2.876   4.205  -1.446  1.00  0.00     0.092 C 
BRANCH   2   3
ATOM      3  N   UNL     1       3.177   2.934  -2.110  1.00  0.00    -0.318 N 
ATOM      4  C   UNL     1       2.185   2.216  -2.671  1.00  0.00     0.407 C 
ATOM      5  O   UNL     1       1.040   2.621  -2.627  1.00  0.00    -0.225 OA
ATOM      6  H   UNL     1       4.147   2.591  -2.148  1.00  0.00     0.167 HD
BRANCH   4   7
ATOM      7  O   UNL     1       2.462   1.048  -3.282  1.00  0.00    -0.444 OA
BRANCH   7   8
ATOM      8  C   UNL     1       1.344   0.327  -3.864  1.00  0.00     0.106 C 
ATOM      9  C   UNL     1       0.674   1.198  -4.928  1.00  0.00     0.056 C 
ATOM     10  C   UNL     1       1.850  -0.965  -4.508  1.00  0.00     0.056 C 
ATOM     11  C   UNL     1       0.330  -0.012  -2.770  1.00  0.00     0.056 C 
ENDBRANCH   7   8
ENDBRANCH   4   7
ENDBRANCH   2   3
BRANCH   2  12
ATOM     12  C   UNL     1       2.451   3.937  -0.001  1.00  0.00     0.060 C 
BRANCH  12  13
ATOM     13  C   UNL     1       1.156   3.165   0.008  1.00  0.00    -0.046 A 
ATOM     14  C   UNL     1      -0.050   3.840   0.023  1.00  0.00     0.004 A 
ATOM     15  C   UNL     1       1.175   1.783   0.000  1.00  0.00     0.004 A 
ATOM     16  C   UNL     1      -1.238   3.133   0.030  1.00  0.00     0.000 A 
ATOM     17  C   UNL     1      -0.013   1.076   0.008  1.00  0.00     0.000 A 
ATOM     18  C   UNL     1      -1.219   1.751   0.017  1.00  0.00     0.000 A 
ENDBRANCH  12  13
ENDBRANCH   2  12
ENDBRANCH   1   2
BRANCH   1  19
ATOM     19  C   UNL     1       4.473   5.464  -2.897  1.00  0.00     0.139 C 
BRANCH  19  20
ATOM     20  C   UNL     1       5.641   6.452  -2.899  1.00  0.00     0.115 C 
BRANCH  20  21
ATOM     21  C   UNL     1       5.993   6.822  -4.341  1.00  0.00     0.063 C 
BRANCH  21  22
ATOM     22  C   UNL     1       7.060   7.886  -4.341  1.00  0.00    -0.046 A 
ATOM     23  C   UNL     1       8.395   7.527  -4.352  1.00  0.00     0.004 A 
ATOM     24  C   UNL     1       6.705   9.222  -4.334  1.00  0.00     0.004 A 
ATOM     25  C   UNL     1       9.374   8.502  -4.352  1.00  0.00     0.000 A 
ATOM     26  C   UNL     1       7.684  10.198  -4.329  1.00  0.00     0.000 A 
ATOM     27  C   UNL     1       9.018   9.838  -4.340  1.00  0.00     0.000 A 
ENDBRANCH  21  22
ENDBRANCH  20  21
BRANCH  20  28
ATOM     28  N   UNL     1       6.804   5.834  -2.256  1.00  0.00    -0.346 N 
ATOM     29  C   UNL     1       7.751   6.608  -1.690  1.00  0.00     0.251 C 
ATOM     30  H   UNL     1       6.898   4.808  -2.237  1.00  0.00     0.164 HD
ATOM     31  O   UNL     1       7.641   7.818  -1.713  1.00  0.00    -0.269 OA
BRANCH  29  32
ATOM     32  C   UNL     1       8.922   5.985  -1.043  1.00  0.00     0.040 A 
ATOM     33  C   UNL     1       9.906   6.786  -0.455  1.00  0.00     0.017 A 
ATOM     34  C   UNL     1       9.048   4.594  -1.011  1.00  0.00     0.017 A 
ATOM     35  C   UNL     1      10.997   6.201   0.149  1.00  0.00     0.047 A 
ATOM     36  C   UNL     1      10.145   4.018  -0.409  1.00  0.00     0.047 A 
ATOM     37  C   UNL     1      11.121   4.817   0.174  1.00  0.00     0.115 A 
BRANCH  37  38
ATOM     38  O   UNL     1      12.197   4.245   0.770  1.00  0.00    -0.508 OA
ATOM     39  H   UNL     1      12.607   3.680   0.068  1.00  0.00     0.293 HD
ENDBRANCH  37  38
ENDBRANCH  29  32
ENDBRANCH  20  28
ENDBRANCH  19  20
BRANCH  19  40
ATOM     40  O   UNL     1       4.844   4.285  -3.615  1.00  0.00    -0.391 OA
ATOM     41  H   UNL     1       4.088   3.646  -3.614  1.00  0.00     0.211 HD
ENDBRANCH  19  40
ENDBRANCH   1  19
TORSDOF 14
