REMARK SMILES Cc1ccc2[n-]c(C(=O)OCC(=O)Nc3c(Cl)c(Cl)cc(Cl)c3Cl)cc(=O)c2c1
REMARK SMILES IDX 11 1 10 2 8 3 9 4 7 5 1 6 2 7 29 8 3 9 28 10 4 11 5 12 26 13
REMARK SMILES IDX 6 14 27 15 25 16 12 17 13 18 14 19 15 21 16 22 23 23 18 24
REMARK SMILES IDX 17 25 21 26 24 27 20 28 19 29 22 30
REMARK H PARENT 14 20
REMARK Flexibility Score: inf
ROOT
ATOM      1  C   UNL     1      -4.234  -1.388  -1.236  1.00  0.00     0.333 C 
ENDROOT
BRANCH   1   2
ATOM      2  O   UNL     1      -3.760  -1.377  -2.608  1.00  0.00    -0.453 OA
BRANCH   2   3
ATOM      3  C   UNL     1      -2.641  -2.077  -2.874  1.00  0.00     0.316 C 
ATOM      4  O   UNL     1      -2.076  -2.680  -1.984  1.00  0.00    -0.248 OA
BRANCH   3   5
ATOM      5  C   UNL     1      -2.098  -2.112  -4.253  1.00  0.00    -0.045 A 
ATOM      6  C   UNL     1      -0.846  -1.430 -10.564  1.00  0.00     0.044 C 
ATOM      7  C   UNL     1      -1.348  -1.433  -9.143  1.00  0.00    -0.050 A 
ATOM      8  C   UNL     1      -0.668  -2.131  -8.185  1.00  0.00     0.014 A 
ATOM      9  C   UNL     1      -2.498  -0.726  -8.818  1.00  0.00     0.002 A 
ATOM     10  C   UNL     1      -1.133  -2.133  -6.870  1.00  0.00     0.007 A 
ATOM     11  C   UNL     1      -2.975  -0.714  -7.526  1.00  0.00    -0.015 A 
ATOM     12  C   UNL     1      -2.299  -1.419  -6.534  1.00  0.00    -0.125 A 
ATOM     13  C   UNL     1      -0.430  -2.873  -5.809  1.00  0.00     0.183 A 
ATOM     14  N   UNL     1      -2.752  -1.426  -5.236  1.00  0.00    -0.651 NA
ATOM     15  O   UNL     1       0.583  -3.507  -6.050  1.00  0.00    -0.289 OA
ATOM     16  C   UNL     1      -0.969  -2.825  -4.495  1.00  0.00     0.044 A 
ENDBRANCH   3   5
ENDBRANCH   2   3
ENDBRANCH   1   2
BRANCH   1  17
ATOM     17  C   UNL     1      -5.487  -0.558  -1.131  1.00  0.00     0.262 C 
ATOM     18  O   UNL     1      -5.937  -0.011  -2.115  1.00  0.00    -0.271 OA
ATOM     19  N   UNL     1      -6.108  -0.423   0.058  1.00  0.00    -0.320 N 
ATOM     20  H   UNL     1      -5.772  -0.949   0.877  1.00  0.00     0.170 HD
BRANCH  19  21
ATOM     21  C   UNL     1      -7.211   0.432   0.179  1.00  0.00     0.082 A 
ATOM     22  C   UNL     1      -8.496  -0.058  -0.019  1.00  0.00     0.084 A 
ATOM     23  C   UNL     1      -7.022   1.770   0.502  1.00  0.00     0.084 A 
ATOM     24  C   UNL     1      -9.583   0.789   0.102  1.00  0.00     0.063 A 
ATOM     25  Cl  UNL     1      -8.737  -1.730  -0.417  1.00  0.00    -0.080 Cl
ATOM     26  C   UNL     1      -8.113   2.613   0.615  1.00  0.00     0.063 A 
ATOM     27  Cl  UNL     1      -5.419   2.384   0.756  1.00  0.00    -0.080 Cl
ATOM     28  C   UNL     1      -9.392   2.123   0.418  1.00  0.00     0.044 A 
ATOM     29  Cl  UNL     1     -11.190   0.178  -0.145  1.00  0.00    -0.083 Cl
ATOM     30  Cl  UNL     1      -7.878   4.286   1.013  1.00  0.00    -0.083 Cl
ENDBRANCH  19  21
ENDBRANCH   1  17
TORSDOF 5
