REMARK SMILES CCc1ccc(NC(=O)[C@H](Cc2ccccc2)NC(=O)C2CCN(C(=O)[C@H]([NH3+])CC(C)C)CC2)cc1
REMARK SMILES IDX 18 1 19 2 20 3 10 5 8 6 7 7 9 9 6 10 3 11 36 12 4 13 35 14
REMARK SMILES IDX 5 15 2 16 1 17 11 18 12 19 17 20 13 21 16 22 14 23 15 24
REMARK SMILES IDX 21 25 34 26 22 27 33 28 23 29 24 30 25 31 26 32 27 33 29 34
REMARK SMILES IDX 30 35 31 36 32 37 28 38
REMARK H PARENT 18 4 7 8 28 39 28 40 28 41
REMARK Flexibility Score: inf
ROOT
ATOM      1  N   UNL     1      -1.910  -2.561  -0.100  1.00  0.00    -0.344 N 
ATOM      2  C   UNL     1      -2.743  -3.513  -0.563  1.00  0.00     0.223 C 
ATOM      3  O   UNL     1      -3.841  -3.208  -0.980  1.00  0.00    -0.275 OA
ATOM      4  H   UNL     1      -0.978  -2.820   0.255  1.00  0.00     0.164 HD
ENDROOT
BRANCH   1   5
ATOM      5  C   UNL     1      -2.329  -1.157  -0.100  1.00  0.00     0.176 C 
BRANCH   5   6
ATOM      6  C   UNL     1      -1.112  -0.269  -0.140  1.00  0.00     0.247 C 
ATOM      7  N   UNL     1      -1.256   1.071  -0.147  1.00  0.00    -0.324 N 
ATOM      8  H   UNL     1      -2.196   1.488  -0.206  1.00  0.00     0.170 HD
ATOM      9  O   UNL     1      -0.004  -0.761  -0.166  1.00  0.00    -0.272 OA
BRANCH   7  10
ATOM     10  C   UNL     1      -0.128   1.895  -0.075  1.00  0.00     0.041 A 
ATOM     11  C   UNL     1       2.103   3.526   0.067  1.00  0.00    -0.048 A 
ATOM     12  C   UNL     1       0.928   3.909   0.687  1.00  0.00     0.006 A 
ATOM     13  C   UNL     1       2.166   2.330  -0.625  1.00  0.00     0.006 A 
ATOM     14  C   UNL     1      -0.189   3.100   0.613  1.00  0.00     0.026 A 
ATOM     15  C   UNL     1       1.054   1.514  -0.697  1.00  0.00     0.026 A 
BRANCH  11  16
ATOM     16  C   UNL     1       3.318   4.414   0.145  1.00  0.00     0.032 C 
ATOM     17  C   UNL     1       3.314   5.389  -1.034  1.00  0.00     0.009 C 
ENDBRANCH  11  16
ENDBRANCH   7  10
ENDBRANCH   5   6
BRANCH   5  18
ATOM     18  C   UNL     1      -3.132  -0.865   1.169  1.00  0.00     0.070 C 
BRANCH  18  19
ATOM     19  C   UNL     1      -4.411  -1.663   1.149  1.00  0.00    -0.045 A 
ATOM     20  C   UNL     1      -4.443  -2.930   1.699  1.00  0.00     0.004 A 
ATOM     21  C   UNL     1      -5.553  -1.125   0.586  1.00  0.00     0.004 A 
ATOM     22  C   UNL     1      -5.615  -3.662   1.682  1.00  0.00     0.000 A 
ATOM     23  C   UNL     1      -6.724  -1.859   0.564  1.00  0.00     0.000 A 
ATOM     24  C   UNL     1      -6.756  -3.126   1.114  1.00  0.00     0.000 A 
ENDBRANCH  18  19
ENDBRANCH   5  18
ENDBRANCH   1   5
BRANCH   2  25
ATOM     25  C   UNL     1      -2.312  -4.957  -0.562  1.00  0.00     0.082 C 
ATOM     26  C   UNL     1      -3.435  -5.825  -1.135  1.00  0.00     0.035 C 
ATOM     27  C   UNL     1      -1.055  -5.114  -1.421  1.00  0.00     0.035 C 
ATOM     28  C   UNL     1      -3.006  -7.295  -1.101  1.00  0.00     0.120 C 
ATOM     29  C   UNL     1      -0.600  -6.577  -1.391  1.00  0.00     0.120 C 
ATOM     30  N   UNL     1      -1.722  -7.430  -1.802  1.00  0.00    -0.338 N 
ATOM     31  C   UNL     1      -1.577  -8.320  -2.804  1.00  0.00     0.280 C 
ATOM     32  O   UNL     1      -2.511  -9.020  -3.134  1.00  0.00    -0.268 OA
BRANCH  31  33
ATOM     33  C   UNL     1      -0.253  -8.447  -3.514  1.00  0.00     0.271 C 
BRANCH  33  34
ATOM     34  C   UNL     1       0.698  -9.298  -2.670  1.00  0.00     0.078 C 
BRANCH  34  35
ATOM     35  C   UNL     1       2.062  -9.372  -3.359  1.00  0.00    -0.011 C 
ATOM     36  C   UNL     1       2.692  -7.979  -3.395  1.00  0.00     0.007 C 
ATOM     37  C   UNL     1       2.974 -10.324  -2.583  1.00  0.00     0.007 C 
ENDBRANCH  34  35
ENDBRANCH  33  34
BRANCH  33  38
ATOM     38  N   UNL     1      -0.433  -9.089  -4.827  1.00  0.00    -0.347 N 
ATOM     39  H   UNL     1      -1.075  -8.519  -5.396  1.00  0.00     0.345 HD
ATOM     40  H   UNL     1      -0.841 -10.025  -4.692  1.00  0.00     0.345 HD
ATOM     41  H   UNL     1       0.476  -9.171  -5.306  1.00  0.00     0.345 HD
ENDBRANCH  33  38
ENDBRANCH  31  33
ENDBRANCH   2  25
TORSDOF 11
