REMARK SMILES C[C@H]1CCc2c(sc(NC(=O)c3cc4n(n3)[C@H](C(F)(F)F)C[C@H](c3ccco3)N4)c2C(N)=O)C1
REMARK SMILES IDX 9 1 10 2 11 3 8 5 1 6 2 7 34 8 3 9 6 10 4 11 5 12 7 13 30 14
REMARK SMILES IDX 31 15 33 16 32 17 12 20 16 21 13 22 15 23 14 24 17 25 29 26
REMARK SMILES IDX 22 27 23 28 18 30 19 31 20 32 21 33 24 34 28 35 25 36 27 37
REMARK SMILES IDX 26 38
REMARK H PARENT 9 4 32 18 32 19 29 29
REMARK Flexibility Score: inf
ROOT
ATOM      1  N   UNL     1       0.838  -2.810  -0.024  1.00  0.00    -0.311 N 
ATOM      2  C   UNL     1       1.731  -1.800  -0.028  1.00  0.00     0.276 C 
ATOM      3  O   UNL     1       2.923  -2.043  -0.042  1.00  0.00    -0.267 OA
ATOM      4  H   UNL     1      -0.171  -2.604  -0.012  1.00  0.00     0.171 HD
ENDROOT
BRANCH   1   5
ATOM      5  C   UNL     1       1.278  -4.124  -0.037  1.00  0.00     0.109 A 
ATOM      6  C   UNL     1       3.723 -10.079  -0.197  1.00  0.00     0.008 C 
ATOM      7  C   UNL     1       2.825  -8.869  -0.463  1.00  0.00    -0.009 C 
ATOM      8  C   UNL     1       3.568  -7.579  -0.084  1.00  0.00     0.050 C 
ATOM      9  C   UNL     1       1.556  -8.975   0.387  1.00  0.00     0.008 C 
ATOM     10  C   UNL     1       2.580  -6.454  -0.065  1.00  0.00     0.011 A 
ATOM     11  C   UNL     1       0.546  -7.913  -0.051  1.00  0.00     0.038 C 
ATOM     12  C   UNL     1       1.233  -6.553  -0.051  1.00  0.00    -0.019 A 
ATOM     13  S   UNL     1       2.907  -4.714  -0.058  1.00  0.00    -0.122 S 
ATOM     14  C   UNL     1       0.520  -5.287  -0.030  1.00  0.00     0.077 A 
BRANCH  14  15
ATOM     15  C   UNL     1      -0.945  -5.239  -0.007  1.00  0.00     0.251 C 
ATOM     16  O   UNL     1      -1.570  -5.216  -1.051  1.00  0.00    -0.269 OA
ATOM     17  N   UNL     1      -1.600  -5.222   1.171  1.00  0.00    -0.365 N 
ATOM     18  H   UNL     1      -1.071  -5.242   2.055  1.00  0.00     0.159 HD
ATOM     19  H   UNL     1      -2.629  -5.189   1.188  1.00  0.00     0.159 HD
ENDBRANCH  14  15
ENDBRANCH   1   5
BRANCH   2  20
ATOM     20  C   UNL     1       1.263  -0.400  -0.015  1.00  0.00     0.152 A 
ATOM     21  N   UNL     1       0.002  -0.004   0.002  1.00  0.00    -0.165 NA
ATOM     22  C   UNL     1       2.085   0.750  -0.017  1.00  0.00     0.082 A 
ATOM     23  N   UNL     1      -0.017   1.390   0.010  1.00  0.00    -0.237 N 
ATOM     24  C   UNL     1       1.277   1.828  -0.000  1.00  0.00     0.126 A 
ATOM     25  C   UNL     1      -1.178   2.284   0.020  1.00  0.00     0.217 C 
ATOM     26  N   UNL     1       1.609   3.186   0.008  1.00  0.00    -0.360 N 
ATOM     27  C   UNL     1      -0.740   3.673  -0.455  1.00  0.00     0.070 C 
ATOM     28  C   UNL     1       0.508   4.120   0.315  1.00  0.00     0.149 C 
ATOM     29  H   UNL     1       2.565   3.515  -0.188  1.00  0.00     0.162 HD
BRANCH  25  30
ATOM     30  C   UNL     1      -2.255   1.737  -0.919  1.00  0.00     0.410 C 
ATOM     31  F   UNL     1      -2.645   0.464  -0.490  1.00  0.00    -0.169 F 
ATOM     32  F   UNL     1      -3.362   2.593  -0.907  1.00  0.00    -0.169 F 
ATOM     33  F   UNL     1      -1.743   1.655  -2.218  1.00  0.00    -0.169 F 
ENDBRANCH  25  30
BRANCH  28  34
ATOM     34  C   UNL     1       0.894   5.514  -0.112  1.00  0.00     0.126 A 
ATOM     35  O   UNL     1       1.555   5.836  -1.235  1.00  0.00    -0.467 OA
ATOM     36  C   UNL     1       0.629   6.645   0.565  1.00  0.00     0.048 A 
ATOM     37  C   UNL     1       1.725   7.168  -1.288  1.00  0.00     0.195 A 
ATOM     38  C   UNL     1       1.169   7.711  -0.190  1.00  0.00     0.042 A 
ENDBRANCH  28  34
ENDBRANCH   2  20
TORSDOF 5
