REMARK SMILES Cc1cccc(C(=O)Oc2ccc(/C=N/NC(=O)c3ccc(OCc4ccc(Cl)cc4)cc3)cc2)c1
REMARK SMILES IDX 16 1 17 2 18 3 15 5 14 6 13 7 10 8 35 9 11 10 34 11 12 12
REMARK SMILES IDX 9 13 7 14 8 15 6 16 1 17 2 18 36 19 3 20 4 21 5 22 19 23
REMARK SMILES IDX 33 24 20 25 32 26 21 27 22 28 23 29 24 30 25 31 31 32 26 33
REMARK SMILES IDX 30 34 27 35 28 36 29 37
REMARK H PARENT 16 4
REMARK Flexibility Score: inf
ROOT
ATOM      1  N   UNL     1       4.783   0.981   0.011  1.00  0.00    -0.243 N 
ATOM      2  C   UNL     1       5.946   1.657   0.090  1.00  0.00     0.271 C 
ATOM      3  O   UNL     1       5.939   2.870   0.180  1.00  0.00    -0.267 OA
ATOM      4  H   UNL     1       4.788  -0.046  -0.065  1.00  0.00     0.194 HD
ENDROOT
BRANCH   1   5
ATOM      5  N   UNL     1       3.566   1.675   0.033  1.00  0.00    -0.180 NA
ATOM      6  C   UNL     1       2.446   1.023  -0.043  1.00  0.00     0.141 C 
BRANCH   6   7
ATOM      7  C   UNL     1       1.165   1.753  -0.021  1.00  0.00    -0.005 A 
ATOM      8  C   UNL     1      -1.242   3.126   0.023  1.00  0.00     0.131 A 
ATOM      9  C   UNL     1      -0.044   3.825   0.104  1.00  0.00     0.048 A 
ATOM     10  C   UNL     1      -1.236   1.741  -0.086  1.00  0.00     0.048 A 
ATOM     11  C   UNL     1       1.155   3.147   0.083  1.00  0.00     0.013 A 
ATOM     12  C   UNL     1      -0.042   1.054  -0.102  1.00  0.00     0.013 A 
BRANCH   8  13
ATOM     13  O   UNL     1      -2.422   3.799   0.044  1.00  0.00    -0.423 OA
BRANCH  13  14
ATOM     14  C   UNL     1      -3.193   3.647   1.139  1.00  0.00     0.343 C 
ATOM     15  O   UNL     1      -2.777   3.019   2.092  1.00  0.00    -0.246 OA
BRANCH  14  16
ATOM     16  C   UNL     1      -4.543   4.244   1.179  1.00  0.00     0.060 A 
ATOM     17  C   UNL     1      -7.473   4.480   3.564  1.00  0.00     0.044 C 
ATOM     18  C   UNL     1      -6.606   4.647   2.343  1.00  0.00    -0.050 A 
ATOM     19  C   UNL     1      -5.347   4.083   2.310  1.00  0.00     0.019 A 
ATOM     20  C   UNL     1      -7.076   5.362   1.255  1.00  0.00     0.003 A 
ATOM     21  C   UNL     1      -6.287   5.520   0.130  1.00  0.00     0.001 A 
ATOM     22  C   UNL     1      -5.024   4.965   0.085  1.00  0.00     0.016 A 
ENDBRANCH  14  16
ENDBRANCH  13  14
ENDBRANCH   8  13
ENDBRANCH   6   7
ENDBRANCH   1   5
BRANCH   2  23
ATOM     23  C   UNL     1       7.227   0.926   0.067  1.00  0.00     0.041 A 
ATOM     24  C   UNL     1       8.434   1.626   0.149  1.00  0.00     0.018 A 
ATOM     25  C   UNL     1       7.237  -0.468  -0.030  1.00  0.00     0.018 A 
ATOM     26  C   UNL     1       9.628   0.940   0.128  1.00  0.00     0.047 A 
ATOM     27  C   UNL     1       8.436  -1.145  -0.056  1.00  0.00     0.047 A 
ATOM     28  C   UNL     1       9.634  -0.446   0.025  1.00  0.00     0.119 A 
BRANCH  28  29
ATOM     29  O   UNL     1      10.813  -1.118   0.004  1.00  0.00    -0.489 OA
BRANCH  29  30
ATOM     30  C   UNL     1      10.746  -2.542  -0.103  1.00  0.00     0.265 C 
BRANCH  30  31
ATOM     31  C   UNL     1      12.142  -3.111  -0.112  1.00  0.00    -0.011 A 
ATOM     32  C   UNL     1      12.752  -3.460   1.078  1.00  0.00     0.009 A 
ATOM     33  C   UNL     1      12.808  -3.288  -1.310  1.00  0.00     0.009 A 
ATOM     34  C   UNL     1      14.032  -3.982   1.071  1.00  0.00     0.021 A 
ATOM     35  C   UNL     1      14.090  -3.805  -1.318  1.00  0.00     0.021 A 
ATOM     36  C   UNL     1      14.702  -4.154  -0.127  1.00  0.00     0.041 A 
ATOM     37  Cl  UNL     1      16.310  -4.809  -0.137  1.00  0.00    -0.084 Cl
ENDBRANCH  30  31
ENDBRANCH  29  30
ENDBRANCH  28  29
ENDBRANCH   2  23
TORSDOF 9
