REMARK SMILES CC1(C)CC(NC(=O)CSc2n[nH]c(NN=C(Cc3ccccc3)Cc3ccccc3)n2)CC(C)(C)[NH2+]1
REMARK SMILES IDX 11 1 32 2 14 3 13 4 12 5 10 7 9 8 7 9 6 10 8 12 5 13 35 14
REMARK SMILES IDX 34 15 37 16 33 17 36 18 2 19 4 22 1 23 3 24 15 25 16 27
REMARK SMILES IDX 17 28 18 29 19 30 24 31 20 32 23 33 21 34 22 35 25 36 26 37
REMARK SMILES IDX 31 38 27 39 30 40 28 41 29 42
REMARK H PARENT 13 6 6 11 37 20 37 21 15 26
REMARK Flexibility Score: inf
ROOT
ATOM      1  C   UNL     1      -0.267   9.541  -3.919  1.00  0.00     0.210 A 
ATOM      2  N   UNL     1      -0.510  10.427  -4.930  1.00  0.00    -0.184 NA
ATOM      3  C   UNL     1      -0.390  11.690  -4.422  1.00  0.00     0.240 A 
ATOM      4  N   UNL     1      -0.085  11.589  -3.151  1.00  0.00    -0.243 N 
ATOM      5  N   UNL     1      -0.012  10.227  -2.831  1.00  0.00    -0.145 NA
ATOM      6  H   UNL     1       0.073  12.373  -2.502  1.00  0.00     0.194 HD
ENDROOT
BRANCH   1   7
ATOM      7  S   UNL     1      -0.297   7.784  -4.052  1.00  0.00    -0.074 SA
BRANCH   7   8
ATOM      8  C   UNL     1       0.105   7.210  -2.379  1.00  0.00     0.178 C 
BRANCH   8   9
ATOM      9  C   UNL     1       0.113   5.703  -2.353  1.00  0.00     0.230 C 
ATOM     10  N   UNL     1       0.389   5.051  -1.207  1.00  0.00    -0.352 N 
ATOM     11  H   UNL     1       0.594   5.581  -0.348  1.00  0.00     0.163 HD
ATOM     12  O   UNL     1      -0.129   5.078  -3.364  1.00  0.00    -0.274 OA
BRANCH  10  13
ATOM     13  C   UNL     1       0.396   3.583  -1.181  1.00  0.00     0.094 C 
ATOM     14  C   UNL     1      -0.944   0.975  -2.269  1.00  0.00     0.079 C 
ATOM     15  C   UNL     1      -1.042   1.551  -0.852  1.00  0.00     0.093 C 
ATOM     16  N   UNL     1      -0.012   1.005   0.008  1.00  0.00    -0.337 N 
ATOM     17  C   UNL     1      -1.022   3.076  -0.918  1.00  0.00     0.093 C 
ATOM     18  C   UNL     1      -2.415   1.129  -0.282  1.00  0.00     0.079 C 
ATOM     19  C   UNL     1       1.320   1.577  -0.002  1.00  0.00     0.093 C 
ATOM     20  H   UNL     1       0.077   0.001  -0.207  1.00  0.00     0.347 HD
ATOM     21  H   UNL     1      -0.360   1.039   0.976  1.00  0.00     0.347 HD
ATOM     22  C   UNL     1       1.298   3.104  -0.042  1.00  0.00     0.093 C 
ATOM     23  C   UNL     1       2.035   1.156   1.301  1.00  0.00     0.079 C 
ATOM     24  C   UNL     1       2.151   1.041  -1.172  1.00  0.00     0.079 C 
ENDBRANCH  10  13
ENDBRANCH   8   9
ENDBRANCH   7   8
ENDBRANCH   1   7
BRANCH   3  25
ATOM     25  N   UNL     1      -0.561  12.873  -5.128  1.00  0.00    -0.246 N 
ATOM     26  H   UNL     1      -0.801  12.845  -6.129  1.00  0.00     0.193 HD
BRANCH  25  27
ATOM     27  N   UNL     1      -0.407  14.105  -4.479  1.00  0.00    -0.181 NA
ATOM     28  C   UNL     1      -0.565  15.196  -5.130  1.00  0.00     0.047 C 
BRANCH  28  29
ATOM     29  C   UNL     1      -0.399  16.521  -4.432  1.00  0.00     0.089 C 
BRANCH  29  30
ATOM     30  C   UNL     1       0.784  17.251  -5.013  1.00  0.00    -0.042 A 
ATOM     31  C   UNL     1       0.612  18.101  -6.089  1.00  0.00     0.004 A 
ATOM     32  C   UNL     1       2.042  17.074  -4.467  1.00  0.00     0.004 A 
ATOM     33  C   UNL     1       1.698  18.771  -6.622  1.00  0.00     0.000 A 
ATOM     34  C   UNL     1       3.128  17.739  -5.003  1.00  0.00     0.000 A 
ATOM     35  C   UNL     1       2.956  18.589  -6.079  1.00  0.00     0.000 A 
ENDBRANCH  29  30
ENDBRANCH  28  29
BRANCH  28  36
ATOM     36  C   UNL     1      -0.917  15.155  -6.595  1.00  0.00     0.089 C 
BRANCH  36  37
ATOM     37  C   UNL     1      -2.416  15.139  -6.752  1.00  0.00    -0.042 A 
ATOM     38  C   UNL     1      -3.112  16.329  -6.855  1.00  0.00     0.004 A 
ATOM     39  C   UNL     1      -3.093  13.935  -6.798  1.00  0.00     0.004 A 
ATOM     40  C   UNL     1      -4.487  16.315  -6.999  1.00  0.00     0.000 A 
ATOM     41  C   UNL     1      -4.468  13.921  -6.936  1.00  0.00     0.000 A 
ATOM     42  C   UNL     1      -5.165  15.111  -7.039  1.00  0.00     0.000 A 
ENDBRANCH  36  37
ENDBRANCH  28  36
ENDBRANCH  25  27
ENDBRANCH   3  25
TORSDOF 10
