REMARK SMILES Nc1c(N(Cc2ccccc2)C(=O)/C=C/c2ccccc2)c(=O)[nH]c(=O)n1Cc1ccccc1
REMARK SMILES IDX 4 1 3 2 27 3 25 4 2 5 24 6 26 7 22 8 23 10 28 11 29 12 32 13
REMARK SMILES IDX 33 14 31 15 34 16 30 17 1 18 5 21 6 22 11 23 7 24 10 25 8 26
REMARK SMILES IDX 9 27 12 28 13 29 14 30 15 31 16 32 21 33 17 34 20 35 18 36
REMARK SMILES IDX 19 37
REMARK H PARENT 24 9 1 19 1 20
REMARK Flexibility Score: inf
ROOT
ATOM      1  N   UNL     1       4.066  -1.046  -1.417  1.00  0.00    -0.296 N 
ENDROOT
BRANCH   1   2
ATOM      2  C   UNL     1       4.930  -0.185  -2.125  1.00  0.00     0.151 A 
ATOM      3  N   UNL     1       7.054   0.839  -2.427  1.00  0.00    -0.274 N 
ATOM      4  C   UNL     1       6.586   1.487  -3.509  1.00  0.00     0.330 A 
ATOM      5  C   UNL     1       6.234  -0.005  -1.713  1.00  0.00     0.138 A 
ATOM      6  N   UNL     1       5.316   1.327  -3.923  1.00  0.00    -0.272 N 
ATOM      7  O   UNL     1       7.325   2.232  -4.124  1.00  0.00    -0.248 OA
ATOM      8  C   UNL     1       4.474   0.510  -3.262  1.00  0.00     0.279 A 
ATOM      9  H   UNL     1       4.984   1.836  -4.754  1.00  0.00     0.175 HD
ATOM     10  O   UNL     1       3.325   0.372  -3.645  1.00  0.00    -0.267 OA
BRANCH   3  11
ATOM     11  C   UNL     1       8.442   1.036  -2.003  1.00  0.00     0.164 C 
BRANCH  11  12
ATOM     12  C   UNL     1       8.512   2.188  -1.033  1.00  0.00    -0.028 A 
ATOM     13  C   UNL     1       8.641   4.299   0.747  1.00  0.00     0.000 A 
ATOM     14  C   UNL     1       8.779   4.529  -0.609  1.00  0.00     0.000 A 
ATOM     15  C   UNL     1       8.438   3.014   1.213  1.00  0.00     0.000 A 
ATOM     16  C   UNL     1       8.720   3.472  -1.499  1.00  0.00     0.005 A 
ATOM     17  C   UNL     1       8.374   1.958   0.323  1.00  0.00     0.005 A 
ENDBRANCH  11  12
ENDBRANCH   3  11
BRANCH   5  18
ATOM     18  N   UNL     1       6.711  -0.663  -0.605  1.00  0.00    -0.383 N 
ATOM     19  H   UNL     1       7.687  -0.524  -0.308  1.00  0.00     0.158 HD
ATOM     20  H   UNL     1       6.095  -1.294  -0.072  1.00  0.00     0.158 HD
ENDBRANCH   5  18
ENDBRANCH   1   2
BRANCH   1  21
ATOM     21  C   UNL     1       3.678  -0.725  -0.041  1.00  0.00     0.161 C 
BRANCH  21  22
ATOM     22  C   UNL     1       2.371   0.025  -0.050  1.00  0.00    -0.028 A 
ATOM     23  C   UNL     1       2.367   1.407  -0.030  1.00  0.00     0.005 A 
ATOM     24  C   UNL     1       1.176  -0.670  -0.079  1.00  0.00     0.005 A 
ATOM     25  C   UNL     1       1.167   2.094  -0.038  1.00  0.00     0.000 A 
ATOM     26  C   UNL     1      -0.023   0.018  -0.087  1.00  0.00     0.000 A 
ATOM     27  C   UNL     1      -0.027   1.400  -0.067  1.00  0.00     0.000 A 
ENDBRANCH  21  22
ENDBRANCH   1  21
BRANCH   1  28
ATOM     28  C   UNL     1       3.598  -2.165  -2.006  1.00  0.00     0.251 C 
ATOM     29  O   UNL     1       3.835  -2.379  -3.180  1.00  0.00    -0.269 OA
BRANCH  28  30
ATOM     30  C   UNL     1       2.805  -3.122  -1.232  1.00  0.00     0.072 C 
ATOM     31  C   UNL     1       2.337  -4.240  -1.821  1.00  0.00     0.014 C 
BRANCH  31  32
ATOM     32  C   UNL     1       1.539  -5.203  -1.044  1.00  0.00    -0.025 A 
ATOM     33  C   UNL     1       1.051  -6.364  -1.651  1.00  0.00     0.008 A 
ATOM     34  C   UNL     1       1.269  -4.963   0.307  1.00  0.00     0.008 A 
ATOM     35  C   UNL     1       0.305  -7.261  -0.916  1.00  0.00     0.001 A 
ATOM     36  C   UNL     1       0.517  -5.866   1.028  1.00  0.00     0.001 A 
ATOM     37  C   UNL     1       0.038  -7.014   0.420  1.00  0.00     0.000 A 
ENDBRANCH  31  32
ENDBRANCH  28  30
ENDBRANCH   1  28
TORSDOF 9
