REMARK SMILES O=C1N(Cc2ccccc2)C(=O)C2(CC[NH+](Cc3cc4ccccc4[nH]3)CC2)N1CCc1ccccc1
REMARK SMILES IDX 29 1 2 2 1 3 3 4 11 5 12 6 13 7 14 8 15 9 27 10 28 11 16 12
REMARK SMILES IDX 30 14 31 15 32 16 35 17 36 18 34 19 37 20 33 21 4 22 5 23
REMARK SMILES IDX 10 24 6 25 9 26 7 27 8 28 17 29 18 30 26 31 19 32 25 33
REMARK SMILES IDX 20 35 24 36 21 37 23 38 22 39
REMARK H PARENT 16 13 26 34
REMARK Flexibility Score: inf
ROOT
ATOM      1  N   UNL     1      -2.874  -0.679   3.466  1.00  0.00    -0.309 N 
ATOM      2  C   UNL     1      -2.514  -0.829   2.176  1.00  0.00     0.328 C 
ATOM      3  O   UNL     1      -1.973  -1.824   1.737  1.00  0.00    -0.248 OA
ATOM      4  N   UNL     1      -2.816   0.244   1.434  1.00  0.00    -0.258 N 
ATOM      5  C   UNL     1      -3.416   1.203   2.169  1.00  0.00     0.257 C 
ATOM      6  O   UNL     1      -3.810   2.284   1.785  1.00  0.00    -0.272 OA
ATOM      7  C   UNL     1      -3.493   0.648   3.572  1.00  0.00     0.134 C 
ATOM      8  C   UNL     1      -4.947   0.526   4.019  1.00  0.00     0.100 C 
ATOM      9  C   UNL     1      -4.993  -0.013   5.452  1.00  0.00     0.265 C 
ATOM     10  C   UNL     1      -2.828   0.957   5.955  1.00  0.00     0.265 C 
ATOM     11  C   UNL     1      -2.709   1.528   4.539  1.00  0.00     0.100 C 
ATOM     12  N   UNL     1      -4.256   0.916   6.336  1.00  0.00    -0.330 N 
ATOM     13  H   UNL     1      -4.655   1.860   6.233  1.00  0.00     0.348 HD
ENDROOT
BRANCH   1  14
ATOM     14  C   UNL     1      -2.691  -1.651   4.546  1.00  0.00     0.127 C 
BRANCH  14  15
ATOM     15  C   UNL     1      -1.197  -1.822   4.831  1.00  0.00     0.057 C 
BRANCH  15  16
ATOM     16  C   UNL     1      -1.002  -2.907   5.858  1.00  0.00    -0.046 A 
ATOM     17  C   UNL     1      -0.644  -4.897   7.743  1.00  0.00     0.000 A 
ATOM     18  C   UNL     1      -0.908  -3.602   8.148  1.00  0.00     0.000 A 
ATOM     19  C   UNL     1      -0.559  -5.197   6.397  1.00  0.00     0.000 A 
ATOM     20  C   UNL     1      -1.081  -2.606   7.205  1.00  0.00     0.004 A 
ATOM     21  C   UNL     1      -0.738  -4.202   5.454  1.00  0.00     0.004 A 
ENDBRANCH  15  16
ENDBRANCH  14  15
ENDBRANCH   1  14
BRANCH   4  22
ATOM     22  C   UNL     1      -2.534   0.359   0.001  1.00  0.00     0.166 C 
BRANCH  22  23
ATOM     23  C   UNL     1      -1.169   0.967  -0.195  1.00  0.00    -0.028 A 
ATOM     24  C   UNL     1      -1.030   2.339  -0.288  1.00  0.00     0.005 A 
ATOM     25  C   UNL     1      -0.055   0.153  -0.278  1.00  0.00     0.005 A 
ATOM     26  C   UNL     1       0.221   2.897  -0.474  1.00  0.00     0.000 A 
ATOM     27  C   UNL     1       1.196   0.710  -0.463  1.00  0.00     0.000 A 
ATOM     28  C   UNL     1       1.334   2.082  -0.562  1.00  0.00     0.000 A 
ENDBRANCH  22  23
ENDBRANCH   4  22
BRANCH  12  29
ATOM     29  C   UNL     1      -4.391   0.486   7.743  1.00  0.00     0.317 C 
BRANCH  29  30
ATOM     30  C   UNL     1      -5.854   0.336   8.072  1.00  0.00     0.071 A 
ATOM     31  N   UNL     1      -6.594  -0.794   7.861  1.00  0.00    -0.354 N 
ATOM     32  C   UNL     1      -6.621   1.290   8.622  1.00  0.00     0.037 A 
ATOM     33  C   UNL     1      -7.891  -0.588   8.274  1.00  0.00     0.046 A 
ATOM     34  H   UNL     1      -6.235  -1.670   7.453  1.00  0.00     0.166 HD
ATOM     35  C   UNL     1      -7.966   0.728   8.766  1.00  0.00    -0.000 A 
ATOM     36  C   UNL     1      -9.031  -1.386   8.286  1.00  0.00     0.026 A 
ATOM     37  C   UNL     1      -9.176   1.220   9.258  1.00  0.00     0.010 A 
ATOM     38  C   UNL     1     -10.215  -0.880   8.777  1.00  0.00     0.002 A 
ATOM     39  C   UNL     1     -10.284   0.419   9.261  1.00  0.00     0.001 A 
ENDBRANCH  29  30
ENDBRANCH  12  29
TORSDOF 7
