REMARK SMILES COc1cccc(/C=C(\C#N)c2nn(-c3ccccc3)c(N)c2C#N)c1OCc1ccc(Cl)cc1Cl
REMARK SMILES IDX 3 1 4 2 5 3 6 4 7 5 26 6 2 7 1 8 27 9 28 10 29 11 35 12
REMARK SMILES IDX 30 13 34 14 36 15 31 16 32 17 33 18 8 19 9 20 10 21 11 22
REMARK SMILES IDX 12 23 13 24 23 25 14 26 21 27 24 28 25 29 15 30 20 31 16 32
REMARK SMILES IDX 19 33 17 34 18 35 22 36
REMARK H PARENT 22 37 22 38
REMARK Flexibility Score: inf
ROOT
ATOM      1  C   UNL     1      -3.944  -1.664   1.199  1.00  0.00     0.161 A 
ATOM      2  C   UNL     1      -4.895  -2.672   1.181  1.00  0.00     0.050 A 
ATOM      3  C   UNL     1      -5.319  -3.214  -0.021  1.00  0.00     0.005 A 
ATOM      4  C   UNL     1      -4.805  -2.754  -1.213  1.00  0.00     0.012 A 
ATOM      5  C   UNL     1      -3.846  -1.732  -1.213  1.00  0.00     0.022 A 
ATOM      6  C   UNL     1      -3.417  -1.183   0.006  1.00  0.00     0.168 A 
ENDROOT
BRANCH   1   7
ATOM      7  O   UNL     1      -3.529  -1.141   2.384  1.00  0.00    -0.493 OA
ATOM      8  C   UNL     1      -4.112  -1.683   3.571  1.00  0.00     0.278 C 
ENDBRANCH   1   7
BRANCH   6   9
ATOM      9  O   UNL     1      -2.489  -0.193   0.019  1.00  0.00    -0.484 OA
BRANCH   9  10
ATOM     10  C   UNL     1      -2.972   1.151  -0.039  1.00  0.00     0.267 C 
BRANCH  10  11
ATOM     11  C   UNL     1      -1.807   2.106  -0.014  1.00  0.00     0.008 A 
ATOM     12  C   UNL     1      -2.030   3.471  -0.056  1.00  0.00     0.049 A 
ATOM     13  C   UNL     1      -0.515   1.618   0.056  1.00  0.00     0.010 A 
ATOM     14  C   UNL     1      -0.960   4.347  -0.040  1.00  0.00     0.041 A 
ATOM     15  Cl  UNL     1      -3.652   4.083  -0.138  1.00  0.00    -0.084 Cl
ATOM     16  C   UNL     1       0.554   2.494   0.073  1.00  0.00     0.021 A 
ATOM     17  C   UNL     1       0.333   3.859   0.025  1.00  0.00     0.042 A 
ATOM     18  Cl  UNL     1       1.676   4.958   0.046  1.00  0.00    -0.084 Cl
ENDBRANCH  10  11
ENDBRANCH   9  10
ENDBRANCH   6   9
BRANCH   5  19
ATOM     19  C   UNL     1      -3.295  -1.238  -2.479  1.00  0.00     0.034 C 
ATOM     20  C   UNL     1      -4.075  -1.207  -3.596  1.00  0.00     0.082 C 
BRANCH  20  21
ATOM     21  C   UNL     1      -5.470  -1.519  -3.504  1.00  0.00     0.102 C 
ATOM     22  N   UNL     1      -6.576  -1.767  -3.431  1.00  0.00    -0.192 NA
ENDBRANCH  20  21
BRANCH  20  23
ATOM     23  C   UNL     1      -3.481  -0.852  -4.903  1.00  0.00     0.123 A 
ATOM     24  N   UNL     1      -2.225  -0.540  -5.129  1.00  0.00    -0.164 NA
ATOM     25  C   UNL     1      -4.187  -0.777  -6.188  1.00  0.00     0.123 A 
ATOM     26  N   UNL     1      -2.051  -0.270  -6.490  1.00  0.00    -0.216 N 
ATOM     27  C   UNL     1      -3.236  -0.409  -7.135  1.00  0.00     0.145 A 
BRANCH  25  28
ATOM     28  C   UNL     1      -5.577  -1.030  -6.421  1.00  0.00     0.105 C 
ATOM     29  N   UNL     1      -6.680  -1.232  -6.605  1.00  0.00    -0.192 NA
ENDBRANCH  25  28
BRANCH  26  30
ATOM     30  C   UNL     1      -0.840   0.093  -7.093  1.00  0.00     0.067 A 
ATOM     31  C   UNL     1       0.072   0.880  -6.403  1.00  0.00     0.028 A 
ATOM     32  C   UNL     1      -0.547  -0.340  -8.380  1.00  0.00     0.028 A 
ATOM     33  C   UNL     1       1.266   1.236  -7.001  1.00  0.00     0.002 A 
ATOM     34  C   UNL     1       0.646   0.024  -8.974  1.00  0.00     0.002 A 
ATOM     35  C   UNL     1       1.552   0.809  -8.285  1.00  0.00     0.000 A 
ENDBRANCH  26  30
BRANCH  27  36
ATOM     36  N   UNL     1      -3.458  -0.219  -8.485  1.00  0.00    -0.382 N 
ATOM     37  H   UNL     1      -4.427  -0.370  -8.800  1.00  0.00     0.158 HD
ATOM     38  H   UNL     1      -2.717   0.054  -9.146  1.00  0.00     0.158 HD
ENDBRANCH  27  36
ENDBRANCH  20  23
ENDBRANCH   5  19
TORSDOF 10
