REMARK SMILES C/C(=N/NC(=O)/C(=C\c1cccc([N+](=O)[O-])c1)NC(=O)c1ccccc1)c1cc(Cl)c(C)cc1O
REMARK SMILES IDX 4 1 5 2 6 3 3 5 2 6 1 7 27 8 32 9 31 10 29 11 33 12 28 13
REMARK SMILES IDX 30 14 34 15 35 16 7 18 8 19 18 20 19 21 20 23 21 24 26 25
REMARK SMILES IDX 22 26 25 27 23 28 24 29 9 30 17 31 10 32 13 33 11 34 12 35
REMARK SMILES IDX 14 36 16 37 15 38
REMARK H PARENT 4 4 35 17 18 22
REMARK Flexibility Score: inf
ROOT
ATOM      1  N   UNL     1      -3.608   5.484   1.517  1.00  0.00    -0.241 N 
ATOM      2  C   UNL     1      -3.468   6.007   0.283  1.00  0.00     0.287 C 
ATOM      3  O   UNL     1      -4.251   5.704  -0.599  1.00  0.00    -0.266 OA
ATOM      4  H   UNL     1      -2.990   5.793   2.281  1.00  0.00     0.194 HD
ENDROOT
BRANCH   1   5
ATOM      5  N   UNL     1      -4.594   4.519   1.762  1.00  0.00    -0.177 NA
ATOM      6  C   UNL     1      -4.797   4.090   2.970  1.00  0.00     0.069 C 
ATOM      7  C   UNL     1      -5.757   2.955   3.215  1.00  0.00     0.069 C 
BRANCH   6   8
ATOM      8  C   UNL     1      -4.088   4.713   4.102  1.00  0.00     0.041 A 
ATOM      9  C   UNL     1      -2.031   6.526   7.389  1.00  0.00     0.046 C 
ATOM     10  C   UNL     1      -2.754   5.886   6.232  1.00  0.00    -0.029 A 
ATOM     11  C   UNL     1      -3.479   6.673   5.353  1.00  0.00     0.044 A 
ATOM     12  C   UNL     1      -2.690   4.516   6.056  1.00  0.00     0.051 A 
ATOM     13  C   UNL     1      -4.141   6.096   4.287  1.00  0.00     0.034 A 
ATOM     14  Cl  UNL     1      -3.551   8.391   5.588  1.00  0.00    -0.084 Cl
ATOM     15  C   UNL     1      -3.353   3.921   4.995  1.00  0.00     0.125 A 
BRANCH  15  16
ATOM     16  O   UNL     1      -3.291   2.576   4.821  1.00  0.00    -0.507 OA
ATOM     17  H   UNL     1      -3.619   2.193   5.673  1.00  0.00     0.293 HD
ENDBRANCH  15  16
ENDBRANCH   6   8
ENDBRANCH   1   5
BRANCH   2  18
ATOM     18  C   UNL     1      -2.370   6.942   0.001  1.00  0.00     0.109 C 
ATOM     19  C   UNL     1      -1.091   6.499  -0.014  1.00  0.00     0.040 C 
BRANCH  18  20
ATOM     20  N   UNL     1      -2.646   8.289  -0.251  1.00  0.00    -0.317 N 
ATOM     21  C   UNL     1      -3.905   8.754  -0.122  1.00  0.00     0.255 C 
ATOM     22  H   UNL     1      -1.888   8.925  -0.534  1.00  0.00     0.170 HD
ATOM     23  O   UNL     1      -4.815   7.985   0.121  1.00  0.00    -0.269 OA
BRANCH  21  24
ATOM     24  C   UNL     1      -4.178  10.198  -0.278  1.00  0.00     0.040 A 
ATOM     25  C   UNL     1      -5.480  10.683  -0.146  1.00  0.00     0.014 A 
ATOM     26  C   UNL     1      -3.135  11.084  -0.552  1.00  0.00     0.014 A 
ATOM     27  C   UNL     1      -5.729  12.032  -0.292  1.00  0.00     0.001 A 
ATOM     28  C   UNL     1      -3.398  12.429  -0.702  1.00  0.00     0.001 A 
ATOM     29  C   UNL     1      -4.691  12.903  -0.570  1.00  0.00     0.000 A 
ENDBRANCH  21  24
ENDBRANCH  18  20
BRANCH  19  30
ATOM     30  C   UNL     1      -0.809   5.061   0.109  1.00  0.00    -0.017 A 
ATOM     31  C   UNL     1      -1.720   4.121  -0.385  1.00  0.00     0.093 A 
ATOM     32  C   UNL     1       0.371   4.625   0.720  1.00  0.00     0.009 A 
ATOM     33  C   UNL     1      -1.448   2.775  -0.266  1.00  0.00     0.270 A 
ATOM     34  C   UNL     1       0.625   3.275   0.837  1.00  0.00     0.008 A 
ATOM     35  C   UNL     1      -0.279   2.352   0.341  1.00  0.00     0.085 A 
BRANCH  33  36
ATOM     36  N   UNL     1      -2.411   1.779  -0.788  1.00  0.00     0.062 N 
ATOM     37  O   UNL     1      -2.132   0.593  -0.767  1.00  0.00    -0.258 OA
ATOM     38  O   UNL     1      -3.482   2.144  -1.238  1.00  0.00    -0.258 OA
ENDBRANCH  33  36
ENDBRANCH  19  30
ENDBRANCH   2  18
TORSDOF 8
