REMARK SMILES CCc1cc2c(=O)n(NC(=O)CNC(=O)c3cccc(C)c3)cnc2s1
REMARK SMILES IDX 9 1 10 2 11 3 8 5 3 6 26 7 4 8 25 9 5 10 24 11 6 12 23 13
REMARK SMILES IDX 7 14 2 15 1 16 12 17 13 18 14 19 15 21 16 22 22 23 17 24
REMARK SMILES IDX 20 25 18 26 19 27 21 28
REMARK H PARENT 9 4 13 20
REMARK Flexibility Score: inf
ROOT
ATOM      1  N   UNL     1      -0.016   1.344   0.009  1.00  0.00    -0.258 N 
ATOM      2  C   UNL     1       0.002  -0.004   0.002  1.00  0.00     0.258 C 
ATOM      3  O   UNL     1       1.060  -0.596  -0.011  1.00  0.00    -0.271 OA
ATOM      4  H   UNL     1      -0.915   1.846   0.021  1.00  0.00     0.192 HD
ENDROOT
BRANCH   1   5
ATOM      5  N   UNL     1       1.187   2.061   0.002  1.00  0.00    -0.206 N 
ATOM      6  C   UNL     1       4.629   4.744  -1.981  1.00  0.00     0.007 A 
ATOM      7  S   UNL     1       4.957   4.384  -0.266  1.00  0.00    -0.120 S 
ATOM      8  C   UNL     1       3.460   4.124  -2.211  1.00  0.00     0.031 A 
ATOM      9  C   UNL     1       3.515   3.413   0.092  1.00  0.00     0.130 A 
ATOM     10  C   UNL     1       2.820   3.396  -1.131  1.00  0.00     0.079 A 
ATOM     11  N   UNL     1       3.054   2.790   1.172  1.00  0.00    -0.225 NA
ATOM     12  C   UNL     1       1.588   2.665  -1.132  1.00  0.00     0.280 A 
ATOM     13  C   UNL     1       1.924   2.136   1.140  1.00  0.00     0.227 A 
ATOM     14  O   UNL     1       0.913   2.591  -2.145  1.00  0.00    -0.267 OA
BRANCH   6  15
ATOM     15  C   UNL     1       5.464   5.549  -2.943  1.00  0.00     0.043 C 
ATOM     16  C   UNL     1       5.037   7.017  -2.883  1.00  0.00     0.010 C 
ENDBRANCH   6  15
ENDBRANCH   1   5
BRANCH   2  17
ATOM     17  C   UNL     1      -1.293  -0.775   0.010  1.00  0.00     0.218 C 
BRANCH  17  18
ATOM     18  N   UNL     1      -1.005  -2.212  -0.000  1.00  0.00    -0.343 N 
ATOM     19  C   UNL     1      -2.018  -3.102   0.005  1.00  0.00     0.251 C 
ATOM     20  H   UNL     1      -0.030  -2.542  -0.011  1.00  0.00     0.164 HD
ATOM     21  O   UNL     1      -3.169  -2.712   0.018  1.00  0.00    -0.269 OA
BRANCH  19  22
ATOM     22  C   UNL     1      -1.728  -4.551  -0.006  1.00  0.00     0.040 A 
ATOM     23  C   UNL     1      -2.774  -5.475  -0.001  1.00  0.00     0.017 A 
ATOM     24  C   UNL     1      -0.407  -5.002  -0.027  1.00  0.00     0.014 A 
ATOM     25  C   UNL     1      -2.497  -6.827  -0.011  1.00  0.00    -0.050 A 
ATOM     26  C   UNL     1      -0.143  -6.356  -0.032  1.00  0.00     0.001 A 
ATOM     27  C   UNL     1      -1.185  -7.267  -0.027  1.00  0.00     0.003 A 
ATOM     28  C   UNL     1      -3.625  -7.826  -0.006  1.00  0.00     0.044 C 
ENDBRANCH  19  22
ENDBRANCH  17  18
ENDBRANCH   2  17
TORSDOF 5
