REMARK SMILES C[C@@H](Sc1nnnn1-c1ccc(O)cc1)C(=O)Nc1cc(C(C)(C)C)nn1-c1ccccc1
REMARK SMILES IDX 1 1 2 2 16 3 17 4 18 5 19 7 27 8 20 9 26 10 21 11 28 12
REMARK SMILES IDX 33 13 29 14 32 15 30 16 31 17 22 18 23 19 24 20 25 21 3 22
REMARK SMILES IDX 4 23 8 24 5 25 7 26 6 27 9 28 15 29 10 30 14 31 11 32 12 33
REMARK SMILES IDX 13 34
REMARK H PARENT 18 6 13 35
REMARK Flexibility Score: inf
ROOT
ATOM      1  C   UNL     1      -2.849   0.476   1.455  1.00  0.00     0.030 C 
ATOM      2  C   UNL     1      -2.482   0.853   0.018  1.00  0.00     0.141 C 
ENDROOT
BRANCH   2   3
ATOM      3  C   UNL     1      -1.187   1.624   0.017  1.00  0.00     0.238 C 
ATOM      4  O   UNL     1      -1.204   2.837   0.023  1.00  0.00    -0.273 OA
ATOM      5  N   UNL     1      -0.011   0.966   0.007  1.00  0.00    -0.310 N 
ATOM      6  H   UNL     1       0.003  -0.064   0.006  1.00  0.00     0.171 HD
BRANCH   5   7
ATOM      7  C   UNL     1       1.187   1.679  -0.000  1.00  0.00     0.136 A 
ATOM      8  N   UNL     1       2.440   1.149  -0.015  1.00  0.00    -0.217 N 
ATOM      9  C   UNL     1       1.317   3.034  -0.000  1.00  0.00     0.073 A 
ATOM     10  N   UNL     1       3.354   2.211  -0.019  1.00  0.00    -0.170 NA
ATOM     11  C   UNL     1       2.683   3.334  -0.006  1.00  0.00     0.070 A 
BRANCH   8  12
ATOM     12  C   UNL     1       2.759  -0.216  -0.025  1.00  0.00     0.067 A 
ATOM     13  C   UNL     1       3.870  -0.665  -0.728  1.00  0.00     0.028 A 
ATOM     14  C   UNL     1       1.969  -1.120   0.671  1.00  0.00     0.028 A 
ATOM     15  C   UNL     1       4.182  -2.010  -0.736  1.00  0.00     0.002 A 
ATOM     16  C   UNL     1       2.284  -2.465   0.655  1.00  0.00     0.002 A 
ATOM     17  C   UNL     1       3.390  -2.910  -0.045  1.00  0.00     0.000 A 
ENDBRANCH   8  12
BRANCH  11  18
ATOM     18  C   UNL     1       3.280   4.717  -0.006  1.00  0.00     0.006 C 
ATOM     19  C   UNL     1       3.154   5.327   1.391  1.00  0.00     0.017 C 
ATOM     20  C   UNL     1       4.758   4.634  -0.394  1.00  0.00     0.017 C 
ATOM     21  C   UNL     1       2.537   5.595  -1.015  1.00  0.00     0.017 C 
ENDBRANCH  11  18
ENDBRANCH   5   7
ENDBRANCH   2   3
BRANCH   2  22
ATOM     22  S   UNL     1      -3.795   1.877  -0.691  1.00  0.00    -0.071 SA
BRANCH  22  23
ATOM     23  C   UNL     1      -5.117   0.712  -0.707  1.00  0.00     0.214 A 
ATOM     24  N   UNL     1      -6.381   0.932  -1.146  1.00  0.00    -0.187 N 
ATOM     25  N   UNL     1      -5.063  -0.538  -0.299  1.00  0.00    -0.101 NA
ATOM     26  N   UNL     1      -7.055  -0.287  -0.956  1.00  0.00    -0.039 NA
ATOM     27  N   UNL     1      -6.204  -1.109  -0.446  1.00  0.00    -0.022 NA
BRANCH  24  28
ATOM     28  C   UNL     1      -6.904   2.121  -1.677  1.00  0.00     0.070 A 
ATOM     29  C   UNL     1      -7.853   2.072  -2.689  1.00  0.00     0.032 A 
ATOM     30  C   UNL     1      -6.477   3.348  -1.185  1.00  0.00     0.032 A 
ATOM     31  C   UNL     1      -8.367   3.242  -3.211  1.00  0.00     0.048 A 
ATOM     32  C   UNL     1      -6.988   4.517  -1.711  1.00  0.00     0.048 A 
ATOM     33  C   UNL     1      -7.936   4.468  -2.724  1.00  0.00     0.115 A 
BRANCH  33  34
ATOM     34  O   UNL     1      -8.442   5.620  -3.238  1.00  0.00    -0.508 OA
ATOM     35  H   UNL     1      -7.652   6.130  -3.548  1.00  0.00     0.293 HD
ENDBRANCH  33  34
ENDBRANCH  24  28
ENDBRANCH  22  23
ENDBRANCH   2  22
TORSDOF 8
