REMARK SMILES COC(=O)[C@]12CC[C@@H](C)[C@@](C)(O)[C@H]1C1=CC[C@H]3[C@@]4(C)C[C@@H](O)[C@H](O)C(C)(C)[C@@H]4CC[C@@]3(C)[C@]1(C)CC2
REMARK SMILES IDX 9 1 8 2 7 3 6 4 5 5 36 6 35 7 33 8 14 9 15 10 16 11 17 12
REMARK SMILES IDX 31 13 30 14 29 15 28 16 18 17 20 18 21 19 23 20 25 21 26 22
REMARK SMILES IDX 27 23 19 24 32 25 13 26 10 27 11 28 34 29 12 30 3 32 4 33
REMARK SMILES IDX 2 34 1 35 22 36 24 38
REMARK H PARENT 12 31 22 37 24 39
REMARK Flexibility Score: inf
ROOT
ATOM      1  C   UNL     1      -0.990  -1.552   0.587  1.00  0.00     0.011 C 
ATOM      2  C   UNL     1      -0.545  -0.141   0.972  1.00  0.00     0.018 C 
ATOM      3  C   UNL     1      -1.420   0.365   2.114  1.00  0.00     0.007 C 
ATOM      4  C   UNL     1      -0.937   1.760   2.508  1.00  0.00     0.020 C 
ATOM      5  C   UNL     1      -1.113   2.726   1.340  1.00  0.00     0.077 C 
ATOM      6  C   UNL     1      -2.585   3.045   1.123  1.00  0.00     0.020 C 
ATOM      7  C   UNL     1      -2.743   4.181   0.107  1.00  0.00     0.013 C 
ATOM      8  C   UNL     1      -2.164   3.803  -1.259  1.00  0.00    -0.006 C 
ATOM      9  C   UNL     1      -0.837   3.138  -1.101  1.00  0.00    -0.061 C 
ATOM     10  C   UNL     1       0.160   3.339  -1.940  1.00  0.00    -0.026 C 
ATOM     11  C   UNL     1      -0.027   4.255  -3.120  1.00  0.00     0.032 C 
ATOM     12  C   UNL     1      -0.817   5.473  -2.609  1.00  0.00     0.006 C 
ATOM     13  C   UNL     1      -2.206   5.002  -2.209  1.00  0.00    -0.020 C 
ATOM     14  C   UNL     1      -3.030   4.679  -3.460  1.00  0.00     0.008 C 
ATOM     15  C   UNL     1      -3.037   5.876  -4.429  1.00  0.00     0.005 C 
ATOM     16  C   UNL     1      -1.601   6.129  -4.876  1.00  0.00     0.004 C 
ATOM     17  C   UNL     1      -0.761   6.558  -3.684  1.00  0.00    -0.023 C 
ATOM     18  C   UNL     1       0.694   6.713  -4.166  1.00  0.00     0.042 C 
ATOM     19  C   UNL     1       0.751   7.799  -5.241  1.00  0.00     0.144 C 
ATOM     20  C   UNL     1      -0.064   7.369  -6.455  1.00  0.00     0.149 C 
ATOM     21  C   UNL     1      -1.506   7.011  -6.101  1.00  0.00    -0.003 C 
ATOM     22  C   UNL     1      -2.064   6.214  -7.308  1.00  0.00     0.014 C 
ATOM     23  C   UNL     1      -2.347   8.282  -5.984  1.00  0.00     0.014 C 
ATOM     24  C   UNL     1      -1.180   7.903  -3.102  1.00  0.00     0.012 C 
ATOM     25  C   UNL     1      -2.954   6.132  -1.484  1.00  0.00     0.012 C 
ATOM     26  C   UNL     1      -0.489   2.226   0.057  1.00  0.00     0.064 C 
ATOM     27  C   UNL     1      -0.678   0.765  -0.246  1.00  0.00     0.072 C 
ATOM     28  C   UNL     1       0.383   0.307  -1.256  1.00  0.00     0.043 C 
ATOM     29  C   UNL     1      -3.127   2.753  -1.828  1.00  0.00     0.017 C 
ENDROOT
BRANCH  27  30
ATOM     30  O   UNL     1      -1.962   0.508  -0.810  1.00  0.00    -0.389 OA
ATOM     31  H   UNL     1      -2.679   0.725  -0.163  1.00  0.00     0.211 HD
ENDBRANCH  27  30
BRANCH   5  32
ATOM     32  C   UNL     1      -0.386   3.996   1.734  1.00  0.00     0.312 C 
ATOM     33  O   UNL     1       0.515   4.414   1.045  1.00  0.00    -0.252 OA
BRANCH  32  34
ATOM     34  O   UNL     1      -0.742   4.655   2.847  1.00  0.00    -0.469 OA
ATOM     35  C   UNL     1      -0.002   5.864   3.162  1.00  0.00     0.282 C 
ENDBRANCH  32  34
ENDBRANCH   5  32
BRANCH  19  36
ATOM     36  O   UNL     1       2.121   7.968  -5.643  1.00  0.00    -0.390 OA
ATOM     37  H   UNL     1       2.472   7.120  -6.014  1.00  0.00     0.211 HD
ENDBRANCH  19  36
BRANCH  20  38
ATOM     38  O   UNL     1      -0.069   8.428  -7.420  1.00  0.00    -0.390 OA
ATOM     39  H   UNL     1       0.860   8.627  -7.701  1.00  0.00     0.211 HD
ENDBRANCH  20  38
TORSDOF 5
