REMARK SMILES O=c1c2c3c(sc2ncn1C1CCCC1)C[C@H]([NH2+]CC1(O)CCCCC1)CC3
REMARK SMILES IDX 18 1 17 4 9 5 10 6 8 7 2 8 7 9 3 10 1 11 6 12 4 13 5 14
REMARK SMILES IDX 28 15 16 16 27 17 11 18 15 19 12 20 14 21 13 22 19 23 20 24
REMARK SMILES IDX 26 25 22 26 25 27 23 28 24 29 21 30
REMARK H PARENT 18 2 18 3 21 31
REMARK Flexibility Score: inf
ROOT
ATOM      1  N   UNL     1       7.844  -1.724   0.015  1.00  0.00    -0.341 N 
ATOM      2  H   UNL     1       7.885  -2.737  -0.164  1.00  0.00     0.346 HD
ATOM      3  H   UNL     1       8.165  -1.220  -0.824  1.00  0.00     0.346 HD
ENDROOT
BRANCH   1   4
ATOM      4  C   UNL     1       6.452  -1.337   0.316  1.00  0.00     0.188 C 
ATOM      5  C   UNL     1      -0.016   1.354   0.009  1.00  0.00     0.204 A 
ATOM      6  N   UNL     1       0.002  -0.004   0.002  1.00  0.00    -0.296 N 
ATOM      7  N   UNL     1       1.092   2.045   0.003  1.00  0.00    -0.227 NA
ATOM      8  C   UNL     1       1.161  -0.689  -0.012  1.00  0.00     0.262 A 
ATOM      9  C   UNL     1       2.276   1.438  -0.012  1.00  0.00     0.131 A 
ATOM     10  C   UNL     1       2.396   0.039  -0.020  1.00  0.00     0.080 A 
ATOM     11  O   UNL     1       1.160  -1.908  -0.019  1.00  0.00    -0.269 OA
ATOM     12  S   UNL     1       3.960   1.997  -0.026  1.00  0.00    -0.120 S 
ATOM     13  C   UNL     1       3.760  -0.486  -0.034  1.00  0.00    -0.018 A 
ATOM     14  C   UNL     1       4.764   0.417  -0.040  1.00  0.00     0.017 A 
ATOM     15  C   UNL     1       4.059  -1.983  -0.043  1.00  0.00     0.044 C 
ATOM     16  C   UNL     1       6.236   0.138  -0.054  1.00  0.00     0.112 C 
ATOM     17  C   UNL     1       5.497  -2.197  -0.516  1.00  0.00     0.070 C 
BRANCH   6  18
ATOM     18  C   UNL     1      -1.265  -0.739   0.010  1.00  0.00     0.092 C 
ATOM     19  C   UNL     1      -2.072  -0.385   1.272  1.00  0.00     0.025 C 
ATOM     20  C   UNL     1      -2.128  -0.317  -1.198  1.00  0.00     0.025 C 
ATOM     21  C   UNL     1      -3.397   0.240   0.787  1.00  0.00     0.002 C 
ATOM     22  C   UNL     1      -3.576  -0.316  -0.648  1.00  0.00     0.002 C 
ENDBRANCH   6  18
ENDBRANCH   1   4
BRANCH   1  23
ATOM     23  C   UNL     1       8.725  -1.393   1.151  1.00  0.00     0.296 C 
BRANCH  23  24
ATOM     24  C   UNL     1      10.158  -1.804   0.810  1.00  0.00     0.113 C 
ATOM     25  C   UNL     1      11.056  -1.579   2.028  1.00  0.00     0.041 C 
ATOM     26  C   UNL     1      10.185  -3.284   0.422  1.00  0.00     0.041 C 
ATOM     27  C   UNL     1      12.490  -1.991   1.688  1.00  0.00     0.003 C 
ATOM     28  C   UNL     1      11.619  -3.696   0.082  1.00  0.00     0.003 C 
ATOM     29  C   UNL     1      12.517  -3.471   1.300  1.00  0.00     0.000 C 
BRANCH  24  30
ATOM     30  O   UNL     1      10.633  -1.016  -0.283  1.00  0.00    -0.384 OA
ATOM     31  H   UNL     1      10.616  -0.059  -0.034  1.00  0.00     0.211 HD
ENDBRANCH  24  30
ENDBRANCH  23  24
ENDBRANCH   1  23
TORSDOF 5
