REMARK SMILES CC[N@@H+]1CCc2c(sc(-n3cccc3)c2CNC(=O)Nc2ccc3c(c2)OCCO3)C1
REMARK SMILES IDX 16 1 15 2 3 3 4 4 31 5 5 7 7 8 6 9 8 10 9 11 2 12 1 13 10 14
REMARK SMILES IDX 14 15 11 16 13 17 12 18 17 19 18 20 19 22 20 23 21 25 26 26
REMARK SMILES IDX 22 27 25 28 23 29 24 30 27 31 30 32 28 33 29 34
REMARK H PARENT 3 6 17 21 20 24
REMARK Flexibility Score: inf
ROOT
ATOM      1  C   UNL     1       4.746  -4.455   0.218  1.00  0.00     0.157 C 
ENDROOT
BRANCH   1   2
ATOM      2  C   UNL     1       6.223  -4.745   0.307  1.00  0.00     0.010 A 
ATOM      3  N   UNL     1       8.274  -5.023   3.942  1.00  0.00    -0.330 N 
ATOM      4  C   UNL     1       6.920  -5.614   3.932  1.00  0.00     0.267 C 
ATOM      5  C   UNL     1       9.022  -5.461   2.739  1.00  0.00     0.310 C 
ATOM      6  H   UNL     1       8.193  -3.996   3.933  1.00  0.00     0.348 HD
ATOM      7  C   UNL     1       6.064  -4.914   2.873  1.00  0.00     0.098 C 
ATOM      8  C   UNL     1       8.158  -5.208   1.547  1.00  0.00     0.065 A 
ATOM      9  C   UNL     1       6.820  -4.954   1.547  1.00  0.00    -0.016 A 
ATOM     10  S   UNL     1       8.598  -5.164  -0.168  1.00  0.00    -0.116 S 
ATOM     11  C   UNL     1       6.974  -4.809  -0.824  1.00  0.00     0.105 A 
BRANCH   3  12
ATOM     12  C   UNL     1       8.997  -5.434   5.165  1.00  0.00     0.259 C 
ATOM     13  C   UNL     1      10.298  -4.635   5.264  1.00  0.00     0.071 C 
ENDBRANCH   3  12
BRANCH  11  14
ATOM     14  N   UNL     1       6.580  -4.640  -2.156  1.00  0.00    -0.315 N 
ATOM     15  C   UNL     1       5.812  -3.618  -2.635  1.00  0.00     0.092 A 
ATOM     16  C   UNL     1       6.904  -5.466  -3.194  1.00  0.00     0.092 A 
ATOM     17  C   UNL     1       5.647  -3.799  -3.962  1.00  0.00     0.020 A 
ATOM     18  C   UNL     1       6.338  -4.975  -4.316  1.00  0.00     0.020 A 
ENDBRANCH  11  14
ENDBRANCH   1   2
BRANCH   1  19
ATOM     19  N   UNL     1       4.523  -3.014   0.356  1.00  0.00    -0.334 N 
ATOM     20  C   UNL     1       3.271  -2.518   0.308  1.00  0.00     0.319 C 
ATOM     21  H   UNL     1       5.323  -2.379   0.491  1.00  0.00     0.165 HD
ATOM     22  O   UNL     1       2.326  -3.267   0.149  1.00  0.00    -0.248 OA
ATOM     23  N   UNL     1       3.065  -1.192   0.435  1.00  0.00    -0.308 N 
ATOM     24  H   UNL     1       3.868  -0.549   0.490  1.00  0.00     0.171 HD
BRANCH  23  25
ATOM     25  C   UNL     1       1.759  -0.688   0.494  1.00  0.00     0.046 A 
ATOM     26  C   UNL     1       1.475   0.567  -0.026  1.00  0.00     0.076 A 
ATOM     27  C   UNL     1       0.748  -1.444   1.072  1.00  0.00     0.030 A 
ATOM     28  C   UNL     1       0.183   1.066   0.033  1.00  0.00     0.163 A 
ATOM     29  C   UNL     1      -0.540  -0.948   1.129  1.00  0.00     0.052 A 
ATOM     30  C   UNL     1      -0.828   0.306   0.610  1.00  0.00     0.161 A 
ATOM     31  O   UNL     1      -0.079   2.301  -0.475  1.00  0.00    -0.486 OA
ATOM     32  O   UNL     1      -2.105   0.775   0.668  1.00  0.00    -0.486 OA
ATOM     33  C   UNL     1      -1.451   2.613  -0.736  1.00  0.00     0.271 C 
ATOM     34  C   UNL     1      -2.282   2.184   0.481  1.00  0.00     0.271 C 
ENDBRANCH  23  25
ENDBRANCH   1  19
TORSDOF 5
