REMARK SMILES CC1(C)CC(NC(=O)CSc2nc(-c3ccccc3)n(-c3ccccc3)n2)CC(C)(C)[NH2+]1
REMARK SMILES IDX 9 1 7 2 6 3 8 5 5 6 30 7 29 8 32 9 28 10 31 11 2 12 4 15
REMARK SMILES IDX 1 16 3 17 10 18 11 19 27 20 12 21 20 22 13 23 21 24 26 25
REMARK SMILES IDX 22 26 25 27 23 28 24 29 14 30 19 31 15 32 18 33 16 34 17 35
REMARK H PARENT 6 4 32 13 32 14
REMARK Flexibility Score: inf
ROOT
ATOM      1  C   UNL     1       3.526   3.325   0.759  1.00  0.00     0.178 C 
ENDROOT
BRANCH   1   2
ATOM      2  C   UNL     1       4.114   4.708   0.870  1.00  0.00     0.230 C 
ATOM      3  N   UNL     1       5.373   4.871   1.322  1.00  0.00    -0.352 N 
ATOM      4  H   UNL     1       5.934   4.050   1.591  1.00  0.00     0.163 HD
ATOM      5  O   UNL     1       3.454   5.675   0.553  1.00  0.00    -0.274 OA
BRANCH   3   6
ATOM      6  C   UNL     1       5.946   6.219   1.430  1.00  0.00     0.094 C 
ATOM      7  C   UNL     1       6.723   8.532   3.362  1.00  0.00     0.079 C 
ATOM      8  C   UNL     1       7.678   7.599   2.607  1.00  0.00     0.093 C 
ATOM      9  N   UNL     1       8.054   8.161   1.327  1.00  0.00    -0.337 N 
ATOM     10  C   UNL     1       7.049   6.213   2.488  1.00  0.00     0.093 C 
ATOM     11  C   UNL     1       8.954   7.459   3.467  1.00  0.00     0.079 C 
ATOM     12  C   UNL     1       7.188   8.003   0.178  1.00  0.00     0.093 C 
ATOM     13  H   UNL     1       8.213   9.169   1.462  1.00  0.00     0.347 HD
ATOM     14  H   UNL     1       8.978   7.779   1.076  1.00  0.00     0.347 HD
ATOM     15  C   UNL     1       6.563   6.613   0.088  1.00  0.00     0.093 C 
ATOM     16  C   UNL     1       6.081   9.064   0.169  1.00  0.00     0.079 C 
ATOM     17  C   UNL     1       8.034   8.215  -1.097  1.00  0.00     0.079 C 
ENDBRANCH   3   6
ENDBRANCH   1   2
BRANCH   1  18
ATOM     18  S   UNL     1       1.830   3.438   0.125  1.00  0.00    -0.074 SA
BRANCH  18  19
ATOM     19  C   UNL     1       1.289   1.763   0.054  1.00  0.00     0.209 A 
ATOM     20  N   UNL     1       2.006   0.717   0.397  1.00  0.00    -0.139 NA
ATOM     21  N   UNL     1       0.087   1.356  -0.358  1.00  0.00    -0.201 NA
ATOM     22  N   UNL     1       1.203  -0.417   0.187  1.00  0.00    -0.212 N 
ATOM     23  C   UNL     1       0.013   0.041  -0.286  1.00  0.00     0.164 A 
BRANCH  22  24
ATOM     24  C   UNL     1       1.557  -1.751   0.419  1.00  0.00     0.067 A 
ATOM     25  C   UNL     1       2.802  -2.220   0.021  1.00  0.00     0.028 A 
ATOM     26  C   UNL     1       0.667  -2.607   1.054  1.00  0.00     0.028 A 
ATOM     27  C   UNL     1       3.149  -3.537   0.251  1.00  0.00     0.002 A 
ATOM     28  C   UNL     1       1.018  -3.924   1.278  1.00  0.00     0.002 A 
ATOM     29  C   UNL     1       2.258  -4.388   0.879  1.00  0.00     0.000 A 
ENDBRANCH  22  24
BRANCH  23  30
ATOM     30  C   UNL     1      -1.155  -0.787  -0.654  1.00  0.00     0.019 A 
ATOM     31  C   UNL     1      -2.448  -0.286  -0.495  1.00  0.00     0.012 A 
ATOM     32  C   UNL     1      -0.970  -2.071  -1.167  1.00  0.00     0.012 A 
ATOM     33  C   UNL     1      -3.534  -1.064  -0.840  1.00  0.00     0.001 A 
ATOM     34  C   UNL     1      -2.064  -2.841  -1.504  1.00  0.00     0.001 A 
ATOM     35  C   UNL     1      -3.343  -2.338  -1.344  1.00  0.00     0.000 A 
ENDBRANCH  23  30
ENDBRANCH  18  19
ENDBRANCH   1  18
TORSDOF 6
