REMARK SMILES COc1ccc([C@@H]2[NH2+][C@@H](C(=O)[O-])Cc3c2[nH]c2ccccc32)cc1COc1ccccc1C1CCCCC1
REMARK SMILES IDX 25 1 24 2 3 3 4 4 23 5 5 6 6 7 2 8 1 9 7 10 15 11 8 12 16 13
REMARK SMILES IDX 14 14 9 15 17 18 22 20 13 21 18 22 21 23 19 24 20 25 10 26
REMARK SMILES IDX 11 27 12 28 26 29 27 30 32 31 28 32 31 33 29 34 30 35 33 36
REMARK SMILES IDX 38 37 34 38 37 39 35 40 36 41
REMARK H PARENT 8 16 8 17 16 19
REMARK Flexibility Score: inf
ROOT
ATOM      1  C   UNL     1      -2.055   2.478   3.470  1.00  0.00     0.269 C 
ENDROOT
BRANCH   1   2
ATOM      2  C   UNL     1      -1.451   3.408   2.449  1.00  0.00     0.032 A 
ATOM      3  C   UNL     1      -0.787   2.892   1.346  1.00  0.00     0.125 A 
ATOM      4  C   UNL     1      -0.227   3.751   0.412  1.00  0.00     0.047 A 
ATOM      5  C   UNL     1      -1.557   4.776   2.612  1.00  0.00     0.021 A 
ATOM      6  C   UNL     1      -0.340   5.117   0.576  1.00  0.00     0.014 A 
ATOM      7  C   UNL     1      -1.003   5.630   1.677  1.00  0.00     0.016 A 
BRANCH   3   8
ATOM      8  O   UNL     1      -0.682   1.547   1.184  1.00  0.00    -0.496 OA
ATOM      9  C   UNL     1       0.015   1.086   0.024  1.00  0.00     0.278 C 
ENDBRANCH   3   8
BRANCH   7  10
ATOM     10  C   UNL     1      -1.120   7.122   1.857  1.00  0.00     0.262 C 
ATOM     11  C   UNL     1      -0.959   7.808   0.521  1.00  0.00     0.083 A 
ATOM     12  N   UNL     1      -2.453   7.457   2.406  1.00  0.00    -0.328 N 
ATOM     13  N   UNL     1       0.207   8.031  -0.159  1.00  0.00    -0.353 N 
ATOM     14  C   UNL     1      -2.002   8.303  -0.184  1.00  0.00    -0.007 A 
ATOM     15  C   UNL     1      -3.508   7.182   1.409  1.00  0.00     0.234 C 
ATOM     16  H   UNL     1      -2.626   6.891   3.250  1.00  0.00     0.347 HD
ATOM     17  H   UNL     1      -2.476   8.454   2.660  1.00  0.00     0.347 HD
ATOM     18  C   UNL     1      -0.059   8.684  -1.329  1.00  0.00     0.046 A 
ATOM     19  H   UNL     1       1.144   7.749   0.162  1.00  0.00     0.166 HD
ATOM     20  C   UNL     1      -1.463   8.883  -1.393  1.00  0.00     0.003 A 
ATOM     21  C   UNL     1      -3.434   8.221   0.282  1.00  0.00     0.110 C 
ATOM     22  C   UNL     1       0.768   9.132  -2.356  1.00  0.00     0.026 A 
ATOM     23  C   UNL     1      -2.054   9.531  -2.483  1.00  0.00     0.010 A 
ATOM     24  C   UNL     1       0.157   9.771  -3.421  1.00  0.00     0.002 A 
ATOM     25  C   UNL     1      -1.214   9.963  -3.479  1.00  0.00     0.001 A 
BRANCH  15  26
ATOM     26  C   UNL     1      -4.854   7.265   2.082  1.00  0.00     0.100 C 
ATOM     27  O   UNL     1      -4.970   7.858   3.128  1.00  0.00    -0.544 OA
ATOM     28  O   UNL     1      -5.923   6.681   1.519  1.00  0.00    -0.544 OA
ENDBRANCH  15  26
ENDBRANCH   7  10
ENDBRANCH   1   2
BRANCH   1  29
ATOM     29  O   UNL     1      -2.679   3.244   4.502  1.00  0.00    -0.488 OA
BRANCH  29  30
ATOM     30  C   UNL     1      -3.276   2.553   5.508  1.00  0.00     0.123 A 
ATOM     31  C   UNL     1      -3.895   3.233   6.547  1.00  0.00    -0.003 A 
ATOM     32  C   UNL     1      -3.262   1.165   5.502  1.00  0.00     0.047 A 
ATOM     33  C   UNL     1      -4.507   2.527   7.565  1.00  0.00     0.008 A 
ATOM     34  C   UNL     1      -3.870   0.465   6.525  1.00  0.00     0.004 A 
ATOM     35  C   UNL     1      -4.491   1.145   7.556  1.00  0.00     0.001 A 
BRANCH  31  36
ATOM     36  C   UNL     1      -3.906   4.740   6.560  1.00  0.00     0.023 C 
ATOM     37  C   UNL     1      -5.352   5.239   6.546  1.00  0.00     0.008 C 
ATOM     38  C   UNL     1      -3.205   5.244   7.824  1.00  0.00     0.008 C 
ATOM     39  C   UNL     1      -5.364   6.769   6.560  1.00  0.00     0.001 C 
ATOM     40  C   UNL     1      -3.217   6.773   7.838  1.00  0.00     0.001 C 
ATOM     41  C   UNL     1      -4.663   7.273   7.823  1.00  0.00     0.000 C 
ENDBRANCH  31  36
ENDBRANCH  29  30
ENDBRANCH   1  29
TORSDOF 7
