REMARK SMILES Cc1cc(NC(=O)c2ccc(C)c([N+](=O)[O-])c2)n(-c2nc3c(c(=O)[nH]2)CCC3)n1
REMARK SMILES IDX 6 1 7 2 5 3 8 5 12 6 11 7 13 8 10 9 17 10 9 11 14 12 16 13
REMARK SMILES IDX 15 14 4 15 18 16 3 17 29 18 2 19 1 20 19 21 20 22 25 23
REMARK SMILES IDX 21 24 23 25 22 27 28 28 24 29 26 30 27 31
REMARK H PARENT 5 4 25 26
REMARK Flexibility Score: inf
ROOT
ATOM      1  C   UNL     1      -1.186   1.619  -0.077  1.00  0.00     0.257 C 
ATOM      2  O   UNL     1      -1.195   2.810  -0.319  1.00  0.00    -0.269 OA
ATOM      3  N   UNL     1      -0.018   0.985   0.146  1.00  0.00    -0.306 N 
ATOM      4  H   UNL     1      -0.010  -0.023   0.355  1.00  0.00     0.171 HD
ENDROOT
BRANCH   1   5
ATOM      5  C   UNL     1      -2.457   0.865  -0.027  1.00  0.00     0.047 A 
ATOM      6  C   UNL     1      -6.132  -1.316   0.118  1.00  0.00     0.052 C 
ATOM      7  C   UNL     1      -4.837  -0.547   0.067  1.00  0.00     0.027 A 
ATOM      8  C   UNL     1      -4.851   0.808  -0.208  1.00  0.00     0.273 A 
ATOM      9  C   UNL     1      -3.639  -1.201   0.296  1.00  0.00     0.011 A 
ATOM     10  C   UNL     1      -3.669   1.518  -0.257  1.00  0.00     0.099 A 
ATOM     11  C   UNL     1      -2.449  -0.504   0.245  1.00  0.00     0.014 A 
BRANCH   8  12
ATOM     12  N   UNL     1      -6.137   1.499  -0.452  1.00  0.00     0.063 N 
ATOM     13  O   UNL     1      -6.164   2.710  -0.578  1.00  0.00    -0.258 OA
ATOM     14  O   UNL     1      -7.169   0.856  -0.526  1.00  0.00    -0.258 OA
ENDBRANCH   8  12
ENDBRANCH   1   5
BRANCH   3  15
ATOM     15  C   UNL     1       1.179   1.694   0.093  1.00  0.00     0.140 A 
ATOM     16  N   UNL     1       2.430   1.184   0.291  1.00  0.00    -0.183 N 
ATOM     17  C   UNL     1       1.319   3.021  -0.171  1.00  0.00     0.072 A 
ATOM     18  N   UNL     1       3.346   2.234   0.148  1.00  0.00    -0.169 NA
ATOM     19  C   UNL     1       2.683   3.328  -0.124  1.00  0.00     0.062 A 
ATOM     20  C   UNL     1       3.287   4.689  -0.353  1.00  0.00     0.069 C 
BRANCH  16  21
ATOM     21  C   UNL     1       2.737  -0.132   0.581  1.00  0.00     0.233 A 
ATOM     22  N   UNL     1       1.768  -1.012   0.686  1.00  0.00    -0.217 NA
ATOM     23  N   UNL     1       4.037  -0.492   0.747  1.00  0.00    -0.291 N 
ATOM     24  C   UNL     1       2.014  -2.295   0.964  1.00  0.00     0.053 A 
ATOM     25  C   UNL     1       4.343  -1.775   1.035  1.00  0.00     0.255 A 
ATOM     26  H   UNL     1       4.785   0.210   0.654  1.00  0.00     0.173 HD
ATOM     27  C   UNL     1       3.298  -2.713   1.145  1.00  0.00     0.039 A 
ATOM     28  C   UNL     1       1.063  -3.462   1.128  1.00  0.00     0.057 C 
ATOM     29  O   UNL     1       5.503  -2.117   1.192  1.00  0.00    -0.269 OA
ATOM     30  C   UNL     1       3.328  -4.194   1.446  1.00  0.00     0.044 C 
ATOM     31  C   UNL     1       1.947  -4.722   1.003  1.00  0.00     0.011 C 
ENDBRANCH  16  21
ENDBRANCH   3  15
TORSDOF 4
