REMARK SMILES O=C(CS[C@@H](c1ccccc1)c1ccc(Cl)cc1)NNC(=O)c1n[nH]c(=O)c2ccccc12
REMARK SMILES IDX 3 1 4 2 5 3 6 4 9 5 10 6 8 7 11 8 7 9 12 10 18 11 13 12
REMARK SMILES IDX 17 13 14 14 15 15 16 16 2 17 1 18 19 19 20 21 21 22 22 24
REMARK SMILES IDX 23 25 24 26 33 27 25 28 28 29 32 30 26 31 29 33 31 34 27 35
REMARK SMILES IDX 30 36
REMARK H PARENT 19 20 20 23 25 32
REMARK Flexibility Score: inf
ROOT
ATOM      1  C   UNL     1      -2.107   0.942   1.949  1.00  0.00     0.172 C 
ENDROOT
BRANCH   1   2
ATOM      2  S   UNL     1      -0.407   1.533   1.721  1.00  0.00    -0.139 SA
BRANCH   2   3
ATOM      3  C   UNL     1      -0.013   1.086   0.008  1.00  0.00     0.107 C 
BRANCH   3   4
ATOM      4  C   UNL     1      -0.900   1.861  -0.931  1.00  0.00    -0.031 A 
ATOM      5  C   UNL     1      -2.529   3.284  -2.653  1.00  0.00     0.000 A 
ATOM      6  C   UNL     1      -1.812   3.947  -1.674  1.00  0.00     0.000 A 
ATOM      7  C   UNL     1      -2.432   1.910  -2.771  1.00  0.00     0.000 A 
ATOM      8  C   UNL     1      -1.002   3.235  -0.810  1.00  0.00     0.005 A 
ATOM      9  C   UNL     1      -1.618   1.199  -1.909  1.00  0.00     0.005 A 
ENDBRANCH   3   4
BRANCH   3  10
ATOM     10  C   UNL     1       1.430   1.415  -0.278  1.00  0.00    -0.030 A 
ATOM     11  C   UNL     1       1.919   2.677   0.004  1.00  0.00     0.007 A 
ATOM     12  C   UNL     1       2.265   0.453  -0.816  1.00  0.00     0.007 A 
ATOM     13  C   UNL     1       3.242   2.980  -0.258  1.00  0.00     0.021 A 
ATOM     14  C   UNL     1       3.586   0.757  -1.083  1.00  0.00     0.021 A 
ATOM     15  C   UNL     1       4.077   2.019  -0.801  1.00  0.00     0.041 A 
ATOM     16  Cl  UNL     1       5.739   2.398  -1.130  1.00  0.00    -0.084 Cl
ENDBRANCH   3  10
ENDBRANCH   2   3
ENDBRANCH   1   2
BRANCH   1  17
ATOM     17  C   UNL     1      -2.564   1.254   3.350  1.00  0.00     0.248 C 
ATOM     18  O   UNL     1      -1.817   1.821   4.120  1.00  0.00    -0.272 OA
ATOM     19  N   UNL     1      -3.804   0.905   3.748  1.00  0.00    -0.267 N 
ATOM     20  H   UNL     1      -4.438   0.424   3.095  1.00  0.00     0.191 HD
BRANCH  19  21
ATOM     21  N   UNL     1      -4.229   1.196   5.051  1.00  0.00    -0.262 N 
ATOM     22  C   UNL     1      -5.468   0.847   5.449  1.00  0.00     0.290 C 
ATOM     23  H   UNL     1      -3.594   1.677   5.705  1.00  0.00     0.191 HD
ATOM     24  O   UNL     1      -6.217   0.279   4.678  1.00  0.00    -0.266 OA
BRANCH  22  25
ATOM     25  C   UNL     1      -5.916   1.153   6.822  1.00  0.00     0.158 A 
ATOM     26  N   UNL     1      -5.115   1.765   7.660  1.00  0.00    -0.166 NA
ATOM     27  C   UNL     1      -7.270   0.781   7.264  1.00  0.00     0.021 A 
ATOM     28  N   UNL     1      -5.426   2.066   8.864  1.00  0.00    -0.242 N 
ATOM     29  C   UNL     1      -7.631   1.100   8.594  1.00  0.00     0.051 A 
ATOM     30  C   UNL     1      -8.178   0.126   6.440  1.00  0.00     0.011 A 
ATOM     31  C   UNL     1      -6.625   1.787   9.416  1.00  0.00     0.272 A 
ATOM     32  H   UNL     1      -4.723   2.548   9.443  1.00  0.00     0.194 HD
ATOM     33  C   UNL     1      -8.896   0.768   9.068  1.00  0.00     0.014 A 
ATOM     34  C   UNL     1      -9.427  -0.195   6.929  1.00  0.00     0.001 A 
ATOM     35  O   UNL     1      -6.868   2.097  10.568  1.00  0.00    -0.267 OA
ATOM     36  C   UNL     1      -9.783   0.123   8.233  1.00  0.00     0.001 A 
ENDBRANCH  22  25
ENDBRANCH  19  21
ENDBRANCH   1  17
TORSDOF 7
