REMARK SMILES Cc1sc2nc(-c3ccc(C(=O)N[C@H](c4ccc(F)cc4)c4nccn4C)cc3)nc(N)c2c1C
REMARK SMILES IDX 7 1 8 2 9 3 10 4 28 5 29 6 6 7 35 8 34 9 33 10 2 11 4 12
REMARK SMILES IDX 31 13 3 14 1 15 5 16 30 17 32 18 11 21 12 22 13 23 14 25
REMARK SMILES IDX 15 26 21 27 16 28 20 29 17 30 18 31 19 32 22 33 26 34 23 35
REMARK SMILES IDX 25 36 27 37 24 38
REMARK H PARENT 32 19 32 20 13 24
REMARK Flexibility Score: inf
ROOT
ATOM      1  C   UNL     1       1.079  -2.235  -0.718  1.00  0.00     0.019 A 
ATOM      2  C   UNL     1       2.265  -2.968  -0.656  1.00  0.00     0.013 A 
ATOM      3  C   UNL     1       2.223  -4.344  -0.623  1.00  0.00     0.014 A 
ATOM      4  C   UNL     1       0.994  -5.006  -0.663  1.00  0.00     0.039 A 
ATOM      5  C   UNL     1      -0.192  -4.271  -0.731  1.00  0.00     0.014 A 
ATOM      6  C   UNL     1      -0.149  -2.895  -0.757  1.00  0.00     0.013 A 
ENDROOT
BRANCH   1   7
ATOM      7  C   UNL     1       1.125  -0.753  -0.748  1.00  0.00     0.163 A 
ATOM      8  C   UNL     1       0.276   4.366  -0.897  1.00  0.00     0.046 C 
ATOM      9  C   UNL     1       1.433   3.403  -0.825  1.00  0.00    -0.024 A 
ATOM     10  C   UNL     1       1.195   1.971  -0.803  1.00  0.00     0.057 A 
ATOM     11  C   UNL     1       2.694   3.859  -0.781  1.00  0.00     0.007 A 
ATOM     12  C   UNL     1       2.363   1.177  -0.736  1.00  0.00     0.130 A 
ATOM     13  C   UNL     1      -0.033   1.254  -0.841  1.00  0.00     0.136 A 
ATOM     14  S   UNL     1       3.673   2.371  -0.705  1.00  0.00    -0.120 S 
ATOM     15  C   UNL     1       3.170   5.289  -0.793  1.00  0.00     0.057 C 
ATOM     16  N   UNL     1       2.300  -0.138  -0.710  1.00  0.00    -0.217 NA
ATOM     17  N   UNL     1      -0.012  -0.067  -0.812  1.00  0.00    -0.211 NA
BRANCH  13  18
ATOM     18  N   UNL     1      -1.237   1.931  -0.914  1.00  0.00    -0.383 N 
ATOM     19  H   UNL     1      -1.243   2.961  -0.941  1.00  0.00     0.158 HD
ATOM     20  H   UNL     1      -2.125   1.409  -0.941  1.00  0.00     0.158 HD
ENDBRANCH  13  18
ENDBRANCH   1   7
BRANCH   4  21
ATOM     21  C   UNL     1       0.948  -6.483  -0.635  1.00  0.00     0.252 C 
ATOM     22  O   UNL     1      -0.122  -7.059  -0.670  1.00  0.00    -0.269 OA
ATOM     23  N   UNL     1       2.093  -7.191  -0.570  1.00  0.00    -0.338 N 
ATOM     24  H   UNL     1       2.999  -6.703  -0.540  1.00  0.00     0.164 HD
BRANCH  23  25
ATOM     25  C   UNL     1       2.048  -8.655  -0.541  1.00  0.00     0.179 C 
BRANCH  25  26
ATOM     26  C   UNL     1       3.292  -9.183   0.125  1.00  0.00    -0.018 A 
ATOM     27  C   UNL     1       3.209 -10.260   0.989  1.00  0.00     0.009 A 
ATOM     28  C   UNL     1       4.516  -8.594  -0.131  1.00  0.00     0.009 A 
ATOM     29  C   UNL     1       4.349 -10.745   1.600  1.00  0.00     0.039 A 
ATOM     30  C   UNL     1       5.657  -9.074   0.484  1.00  0.00     0.039 A 
ATOM     31  C   UNL     1       5.575 -10.153   1.349  1.00  0.00     0.123 A 
ATOM     32  F   UNL     1       6.690 -10.627   1.946  1.00  0.00    -0.207 F 
ENDBRANCH  25  26
BRANCH  25  33
ATOM     33  C   UNL     1       1.971  -9.183  -1.951  1.00  0.00     0.135 A 
ATOM     34  N   UNL     1       1.145 -10.160  -2.382  1.00  0.00    -0.336 N 
ATOM     35  N   UNL     1       2.688  -8.767  -2.959  1.00  0.00    -0.239 NA
ATOM     36  C   UNL     1       1.388 -10.337  -3.717  1.00  0.00     0.107 A 
ATOM     37  C   UNL     1       0.170 -10.894  -1.571  1.00  0.00     0.151 C 
ATOM     38  C   UNL     1       2.354  -9.462  -4.056  1.00  0.00     0.131 A 
ENDBRANCH  25  33
ENDBRANCH  23  25
ENDBRANCH   4  21
TORSDOF 6
