REMARK SMILES Cc1ccc(S(=O)(=O)N2CCC[C@@H](C(=O)N[C@@H](c3ccccc3)c3ccc4[nH]cnc4c3)C2)s1
REMARK SMILES IDX 9 1 10 2 11 3 12 4 13 5 33 6 6 7 7 8 8 9 5 10 1 11 2 12
REMARK SMILES IDX 34 13 3 14 4 15 14 16 15 17 16 18 17 20 18 21 23 22 19 23
REMARK SMILES IDX 22 24 20 25 21 26 24 27 32 28 25 29 31 30 26 31 27 32 30 33
REMARK SMILES IDX 28 34 29 35
REMARK H PARENT 16 19 28 36
REMARK Flexibility Score: inf
ROOT
ATOM      1  N   UNL     1      -0.796  10.095  -3.783  1.00  0.00    -0.196 NA
ATOM      2  C   UNL     1      -1.270   9.307  -4.929  1.00  0.00     0.102 C 
ATOM      3  C   UNL     1      -1.912   8.017  -4.408  1.00  0.00     0.018 C 
ATOM      4  C   UNL     1      -0.913   7.282  -3.510  1.00  0.00     0.016 C 
ATOM      5  C   UNL     1      -0.559   8.164  -2.311  1.00  0.00     0.094 C 
ATOM      6  C   UNL     1       0.098   9.456  -2.807  1.00  0.00     0.116 C 
ENDROOT
BRANCH   1   7
ATOM      7  S   UNL     1      -1.259  11.674  -3.595  1.00  0.00     0.252 S 
ATOM      8  O   UNL     1      -2.483  11.825  -4.301  1.00  0.00    -0.206 OA
ATOM      9  O   UNL     1      -1.136  11.971  -2.211  1.00  0.00    -0.206 OA
BRANCH   7  10
ATOM     10  C   UNL     1      -0.070  12.669  -4.431  1.00  0.00     0.135 A 
ATOM     11  C   UNL     1       3.212  15.026  -5.536  1.00  0.00     0.056 C 
ATOM     12  C   UNL     1       1.977  14.196  -5.298  1.00  0.00     0.003 A 
ATOM     13  S   UNL     1       1.440  13.385  -3.801  1.00  0.00    -0.128 S 
ATOM     14  C   UNL     1       0.986  13.872  -6.164  1.00  0.00     0.016 A 
ATOM     15  C   UNL     1      -0.060  13.085  -5.721  1.00  0.00     0.034 A 
ENDBRANCH   7  10
ENDBRANCH   1   7
BRANCH   5  16
ATOM     16  C   UNL     1       0.399   7.427  -1.410  1.00  0.00     0.225 C 
ATOM     17  O   UNL     1       1.498   7.888  -1.187  1.00  0.00    -0.275 OA
ATOM     18  N   UNL     1       0.034   6.255  -0.853  1.00  0.00    -0.345 N 
ATOM     19  H   UNL     1      -0.900   5.864  -1.042  1.00  0.00     0.164 HD
BRANCH  18  20
ATOM     20  C   UNL     1       0.965   5.539   0.022  1.00  0.00     0.143 C 
BRANCH  20  21
ATOM     21  C   UNL     1       0.850   6.076   1.425  1.00  0.00    -0.021 A 
ATOM     22  C   UNL     1       1.986   6.252   2.193  1.00  0.00     0.006 A 
ATOM     23  C   UNL     1      -0.391   6.399   1.942  1.00  0.00     0.006 A 
ATOM     24  C   UNL     1       1.881   6.745   3.480  1.00  0.00     0.000 A 
ATOM     25  C   UNL     1      -0.496   6.888   3.231  1.00  0.00     0.000 A 
ATOM     26  C   UNL     1       0.640   7.063   3.999  1.00  0.00     0.000 A 
ENDBRANCH  20  21
BRANCH  20  27
ATOM     27  C   UNL     1       0.629   4.070   0.018  1.00  0.00    -0.019 A 
ATOM     28  C   UNL     1       1.635   3.146   0.003  1.00  0.00     0.036 A 
ATOM     29  C   UNL     1      -0.700   3.669   0.028  1.00  0.00     0.008 A 
ATOM     30  C   UNL     1       1.328   1.782  -0.001  1.00  0.00     0.089 A 
ATOM     31  C   UNL     1      -1.026   2.329   0.029  1.00  0.00     0.029 A 
ATOM     32  C   UNL     1      -0.017   1.376   0.010  1.00  0.00     0.065 A 
ATOM     33  N   UNL     1       2.082   0.653  -0.014  1.00  0.00    -0.237 NA
ATOM     34  N   UNL     1       0.002  -0.004   0.002  1.00  0.00    -0.345 N 
ATOM     35  C   UNL     1       1.306  -0.391  -0.013  1.00  0.00     0.197 A 
ATOM     36  H   UNL     1      -0.819  -0.626   0.006  1.00  0.00     0.168 HD
ENDBRANCH  20  27
ENDBRANCH  18  20
ENDBRANCH   5  16
TORSDOF 6
