REMARK SMILES COC(=O)c1c(NC(=O)CN2CC[NH+](Cc3cccc4ccccc34)CC2)sc(C)c1C
REMARK SMILES IDX 7 1 8 2 9 3 6 5 32 6 31 7 5 8 29 9 28 10 30 11 3 12 4 13
REMARK SMILES IDX 2 14 1 15 10 16 11 17 12 18 27 19 13 20 26 21 14 22 15 24
REMARK SMILES IDX 16 25 25 26 17 27 20 28 24 29 18 30 19 31 21 32 23 33 22 34
REMARK H PARENT 7 4 14 23
REMARK Flexibility Score: inf
ROOT
ATOM      1  N   UNL     1      -0.633   0.988  -4.828  1.00  0.00    -0.316 N 
ATOM      2  C   UNL     1      -0.998   1.369  -3.588  1.00  0.00     0.239 C 
ATOM      3  O   UNL     1      -2.041   1.963  -3.418  1.00  0.00    -0.273 OA
ATOM      4  H   UNL     1       0.253   0.483  -4.972  1.00  0.00     0.170 HD
ENDROOT
BRANCH   1   5
ATOM      5  C   UNL     1      -1.450   1.275  -5.910  1.00  0.00     0.110 A 
ATOM      6  C   UNL     1      -2.163   1.115  -9.653  1.00  0.00     0.046 C 
ATOM      7  C   UNL     1      -2.274   1.392  -8.175  1.00  0.00    -0.021 A 
ATOM      8  C   UNL     1      -1.248   0.968  -7.251  1.00  0.00     0.098 A 
ATOM      9  C   UNL     1      -3.332   2.045  -7.662  1.00  0.00     0.007 A 
ATOM     10  S   UNL     1      -2.975   2.097  -5.918  1.00  0.00    -0.122 S 
ATOM     11  C   UNL     1      -4.533   2.594  -8.387  1.00  0.00     0.057 C 
BRANCH   8  12
ATOM     12  C   UNL     1      -0.055   0.251  -7.704  1.00  0.00     0.341 C 
ATOM     13  O   UNL     1      -0.059  -0.964  -7.758  1.00  0.00    -0.246 OA
BRANCH  12  14
ATOM     14  O   UNL     1       1.050   0.938  -8.062  1.00  0.00    -0.465 OA
ATOM     15  C   UNL     1       2.196   0.161  -8.500  1.00  0.00     0.282 C 
ENDBRANCH  12  14
ENDBRANCH   8  12
ENDBRANCH   1   5
BRANCH   2  16
ATOM     16  C   UNL     1      -0.109   1.057  -2.412  1.00  0.00     0.185 C 
BRANCH  16  17
ATOM     17  N   UNL     1      -0.751   1.564  -1.180  1.00  0.00    -0.283 NA
ATOM     18  C   UNL     1      -0.013   1.086   0.008  1.00  0.00     0.146 C 
ATOM     19  C   UNL     1      -0.777   3.042  -1.196  1.00  0.00     0.146 C 
ATOM     20  C   UNL     1      -0.730   1.580   1.267  1.00  0.00     0.278 C 
ATOM     21  C   UNL     1      -1.495   3.536   0.062  1.00  0.00     0.278 C 
ATOM     22  N   UNL     1      -0.757   3.058   1.251  1.00  0.00    -0.329 N 
ATOM     23  H   UNL     1       0.210   3.409   1.209  1.00  0.00     0.348 HD
BRANCH  22  24
ATOM     24  C   UNL     1      -1.399   3.565   2.482  1.00  0.00     0.299 C 
BRANCH  24  25
ATOM     25  C   UNL     1      -0.510   3.252   3.658  1.00  0.00     0.014 A 
ATOM     26  C   UNL     1       0.616   4.050   3.924  1.00  0.00    -0.010 A 
ATOM     27  C   UNL     1      -0.790   2.193   4.465  1.00  0.00     0.010 A 
ATOM     28  C   UNL     1       1.437   3.743   5.038  1.00  0.00    -0.018 A 
ATOM     29  C   UNL     1       0.935   5.154   3.116  1.00  0.00     0.009 A 
ATOM     30  C   UNL     1       0.020   1.889   5.557  1.00  0.00     0.001 A 
ATOM     31  C   UNL     1       1.116   2.642   5.848  1.00  0.00     0.009 A 
ATOM     32  C   UNL     1       2.560   4.545   5.307  1.00  0.00     0.009 A 
ATOM     33  C   UNL     1       2.030   5.908   3.407  1.00  0.00     0.001 A 
ATOM     34  C   UNL     1       2.841   5.604   4.500  1.00  0.00     0.001 A 
ENDBRANCH  24  25
ENDBRANCH  22  24
ENDBRANCH  16  17
ENDBRANCH   2  16
TORSDOF 7
