REMARK SMILES Cc1ccc2oc(C(=O)N(Cc3ccc(C(N)=O)cc3)C3CC3)cc(=O)c2c1
REMARK SMILES IDX 11 1 10 2 8 3 9 4 7 5 1 6 2 7 28 8 3 9 27 10 4 11 5 12 25 13
REMARK SMILES IDX 6 14 26 15 24 16 21 17 23 18 22 19 12 20 20 21 13 22 19 23
REMARK SMILES IDX 14 24 15 25 16 26 18 27 17 28
REMARK H PARENT 17 29 17 30
REMARK Flexibility Score: inf
ROOT
ATOM      1  C   UNL     1      -4.863  -2.769  -0.129  1.00  0.00     0.155 C 
ENDROOT
BRANCH   1   2
ATOM      2  N   UNL     1      -3.611  -2.014  -0.036  1.00  0.00    -0.329 N 
BRANCH   2   3
ATOM      3  C   UNL     1      -2.431  -2.665  -0.017  1.00  0.00     0.290 C 
ATOM      4  O   UNL     1      -1.402  -2.050   0.177  1.00  0.00    -0.265 OA
BRANCH   3   5
ATOM      5  C   UNL     1      -2.390  -4.130  -0.231  1.00  0.00     0.196 A 
ATOM      6  C   UNL     1      -3.806 -10.361  -1.198  1.00  0.00     0.044 C 
ATOM      7  C   UNL     1      -3.727  -8.873  -0.977  1.00  0.00    -0.050 A 
ATOM      8  C   UNL     1      -2.508  -8.269  -0.845  1.00  0.00     0.019 A 
ATOM      9  C   UNL     1      -4.893  -8.123  -0.906  1.00  0.00     0.007 A 
ATOM     10  C   UNL     1      -2.438  -6.891  -0.639  1.00  0.00     0.065 A 
ATOM     11  C   UNL     1      -4.844  -6.761  -0.703  1.00  0.00     0.048 A 
ATOM     12  C   UNL     1      -3.614  -6.125  -0.567  1.00  0.00     0.138 A 
ATOM     13  C   UNL     1      -1.142  -6.202  -0.493  1.00  0.00     0.193 A 
ATOM     14  O   UNL     1      -3.546  -4.795  -0.369  1.00  0.00    -0.451 OA
ATOM     15  O   UNL     1      -0.087  -6.809  -0.545  1.00  0.00    -0.289 OA
ATOM     16  C   UNL     1      -1.185  -4.747  -0.280  1.00  0.00     0.105 A 
ENDBRANCH   3   5
ENDBRANCH   2   3
BRANCH   2  17
ATOM     17  C   UNL     1      -3.642  -0.551   0.034  1.00  0.00     0.086 C 
ATOM     18  C   UNL     1      -2.872   0.118   1.175  1.00  0.00     0.027 C 
ATOM     19  C   UNL     1      -2.341   0.198  -0.258  1.00  0.00     0.027 C 
ENDBRANCH   2  17
ENDBRANCH   1   2
BRANCH   1  20
ATOM     20  C   UNL     1      -5.333  -3.134   1.256  1.00  0.00    -0.029 A 
ATOM     21  C   UNL     1      -6.274  -2.345   1.894  1.00  0.00     0.006 A 
ATOM     22  C   UNL     1      -4.826  -4.259   1.881  1.00  0.00     0.006 A 
ATOM     23  C   UNL     1      -6.709  -2.674   3.161  1.00  0.00     0.014 A 
ATOM     24  C   UNL     1      -5.248  -4.596   3.151  1.00  0.00     0.014 A 
ATOM     25  C   UNL     1      -6.197  -3.805   3.800  1.00  0.00     0.039 A 
BRANCH  25  26
ATOM     26  C   UNL     1      -6.658  -4.162   5.158  1.00  0.00     0.248 C 
ATOM     27  O   UNL     1      -7.485  -3.471   5.721  1.00  0.00    -0.270 OA
ATOM     28  N   UNL     1      -6.162  -5.255   5.772  1.00  0.00    -0.366 N 
ATOM     29  H   UNL     1      -5.462  -5.840   5.295  1.00  0.00     0.159 HD
ATOM     30  H   UNL     1      -6.484  -5.504   6.719  1.00  0.00     0.159 HD
ENDBRANCH  25  26
ENDBRANCH   1  20
TORSDOF 6
