REMARK SMILES Cn1c(=O)cc(-c2cccc(Cl)c2)c2cc([C@H]([NH3+])c3cncn3Cc3ccc(C#N)cc3)ccc21
REMARK SMILES IDX 19 1 20 2 21 3 22 4 23 5 17 6 16 7 1 8 2 9 3 10 35 11 5 12
REMARK SMILES IDX 4 13 14 14 34 15 6 16 15 17 33 18 7 19 13 20 8 21 11 22 9 23
REMARK SMILES IDX 10 24 12 25 18 26 24 30 25 31 32 32 26 33 31 34 27 35 28 36
REMARK SMILES IDX 29 37 30 38
REMARK H PARENT 18 27 18 28 18 29
REMARK Flexibility Score: inf
ROOT
ATOM      1  C   UNL     1       1.812   5.462   5.948  1.00  0.00     0.101 A 
ATOM      2  C   UNL     1       3.027   5.503   6.528  1.00  0.00     0.141 A 
ATOM      3  N   UNL     1       3.175   4.388   7.259  1.00  0.00    -0.245 NA
ATOM      4  C   UNL     1       2.102   3.654   7.147  1.00  0.00     0.200 A 
ATOM      5  N   UNL     1       1.227   4.288   6.338  1.00  0.00    -0.325 N 
ENDROOT
BRANCH   1   6
ATOM      6  C   UNL     1       1.215   6.506   5.039  1.00  0.00     0.261 C 
BRANCH   6   7
ATOM      7  C   UNL     1       2.154   6.767   3.890  1.00  0.00     0.016 A 
ATOM      8  C   UNL     1       6.045   8.156   0.985  1.00  0.00     0.153 C 
ATOM      9  N   UNL     1       4.759   7.499   0.736  1.00  0.00    -0.311 N 
ATOM     10  C   UNL     1       4.435   7.138  -0.517  1.00  0.00     0.251 A 
ATOM     11  C   UNL     1       3.904   7.263   1.792  1.00  0.00     0.051 A 
ATOM     12  C   UNL     1       3.218   6.500  -0.814  1.00  0.00     0.081 A 
ATOM     13  O   UNL     1       5.221   7.367  -1.422  1.00  0.00    -0.269 OA
ATOM     14  C   UNL     1       2.669   6.632   1.560  1.00  0.00     0.007 A 
ATOM     15  C   UNL     1       4.246   7.638   3.088  1.00  0.00     0.027 A 
ATOM     16  C   UNL     1       2.318   6.239   0.186  1.00  0.00    -0.004 A 
ATOM     17  C   UNL     1       1.799   6.390   2.625  1.00  0.00     0.021 A 
ATOM     18  C   UNL     1       3.373   7.389   4.125  1.00  0.00     0.012 A 
BRANCH  16  19
ATOM     19  C   UNL     1       1.030   5.573  -0.107  1.00  0.00    -0.016 A 
ATOM     20  C   UNL     1      -0.172   6.254   0.089  1.00  0.00     0.029 A 
ATOM     21  C   UNL     1       1.012   4.260  -0.582  1.00  0.00     0.009 A 
ATOM     22  C   UNL     1      -1.371   5.626  -0.186  1.00  0.00     0.041 A 
ATOM     23  C   UNL     1      -0.192   3.644  -0.853  1.00  0.00     0.002 A 
ATOM     24  C   UNL     1      -1.381   4.326  -0.661  1.00  0.00     0.020 A 
ATOM     25  Cl  UNL     1      -2.867   6.472   0.057  1.00  0.00    -0.084 Cl
ENDBRANCH  16  19
ENDBRANCH   6   7
BRANCH   6  26
ATOM     26  N   UNL     1       0.996   7.764   5.774  1.00  0.00    -0.346 N 
ATOM     27  H   UNL     1       0.581   8.466   5.146  1.00  0.00     0.345 HD
ATOM     28  H   UNL     1       1.893   8.115   6.139  1.00  0.00     0.345 HD
ATOM     29  H   UNL     1       0.355   7.590   6.562  1.00  0.00     0.345 HD
ENDBRANCH   6  26
ENDBRANCH   1   6
BRANCH   5  30
ATOM     30  C   UNL     1      -0.102   3.808   5.949  1.00  0.00     0.159 C 
BRANCH  30  31
ATOM     31  C   UNL     1       0.032   2.814   4.825  1.00  0.00    -0.028 A 
ATOM     32  C   UNL     1       0.200   1.470   5.110  1.00  0.00     0.007 A 
ATOM     33  C   UNL     1      -0.019   3.248   3.512  1.00  0.00     0.007 A 
ATOM     34  C   UNL     1       0.323   0.555   4.086  1.00  0.00     0.020 A 
ATOM     35  C   UNL     1       0.108   2.344   2.478  1.00  0.00     0.020 A 
ATOM     36  C   UNL     1       0.278   0.986   2.758  1.00  0.00     0.052 A 
BRANCH  36  37
ATOM     37  C   UNL     1       0.405   0.041   1.690  1.00  0.00     0.099 C 
ATOM     38  N   UNL     1       0.506  -0.708   0.843  1.00  0.00    -0.192 NA
ENDBRANCH  36  37
ENDBRANCH  30  31
ENDBRANCH   5  30
TORSDOF 7
