REMARK SMILES C=CCn1c(S[C@@H](C)C(=O)Nc2ccc(C(N)=O)cc2)nnc1-c1cc2c(s1)CC[C@@H](CC)C2
REMARK SMILES IDX 7 1 8 2 6 3 5 4 23 5 4 6 22 7 21 8 24 9 31 10 34 11 30 12
REMARK SMILES IDX 26 13 29 14 27 15 25 16 28 17 32 18 33 19 3 20 2 21 1 22
REMARK SMILES IDX 9 23 10 24 11 25 12 27 20 28 13 29 19 30 14 31 15 32 16 33
REMARK SMILES IDX 18 34 17 35
REMARK H PARENT 11 26 17 36 17 37
REMARK Flexibility Score: inf
ROOT
ATOM      1  C   UNL     1      -1.025  -0.914  -0.057  1.00  0.00     0.141 C 
ATOM      2  C   UNL     1      -1.302  -1.197   1.421  1.00  0.00     0.030 C 
ENDROOT
BRANCH   1   3
ATOM      3  S   UNL     1      -0.653  -2.467  -0.909  1.00  0.00    -0.073 SA
BRANCH   3   4
ATOM      4  C   UNL     1      -2.205  -3.285  -0.747  1.00  0.00     0.192 A 
ATOM      5  C   UNL     1      -3.831  -4.742  -0.856  1.00  0.00     0.175 A 
ATOM      6  N   UNL     1      -2.519  -4.530  -1.216  1.00  0.00    -0.297 N 
ATOM      7  N   UNL     1      -4.233  -3.667  -0.216  1.00  0.00    -0.128 NA
ATOM      8  N   UNL     1      -3.275  -2.813  -0.147  1.00  0.00    -0.123 NA
BRANCH   5   9
ATOM      9  C   UNL     1      -4.631  -5.946  -1.135  1.00  0.00     0.072 A 
ATOM     10  C   UNL     1      -8.320  -9.067  -1.398  1.00  0.00    -0.007 C 
ATOM     11  C   UNL     1      -7.739  -8.033  -0.433  1.00  0.00     0.040 C 
ATOM     12  C   UNL     1      -7.279 -10.150  -1.695  1.00  0.00     0.009 C 
ATOM     13  C   UNL     1      -6.415  -7.525  -0.996  1.00  0.00    -0.033 A 
ATOM     14  C   UNL     1      -6.167  -9.540  -2.562  1.00  0.00     0.047 C 
ATOM     15  C   UNL     1      -5.753  -8.241  -1.950  1.00  0.00     0.009 A 
ATOM     16  C   UNL     1      -5.822  -6.338  -0.584  1.00  0.00     0.027 A 
ATOM     17  S   UNL     1      -4.308  -7.271  -2.288  1.00  0.00    -0.137 S 
BRANCH  10  18
ATOM     18  C   UNL     1      -9.556  -9.710  -0.765  1.00  0.00     0.000 C 
ATOM     19  C   UNL     1     -10.645  -8.652  -0.582  1.00  0.00     0.004 C 
ENDBRANCH  10  18
ENDBRANCH   5   9
BRANCH   6  20
ATOM     20  C   UNL     1      -1.642  -5.447  -1.949  1.00  0.00     0.153 C 
BRANCH  20  21
ATOM     21  C   UNL     1      -0.912  -6.332  -0.972  1.00  0.00    -0.013 C 
ATOM     22  C   UNL     1      -0.982  -7.635  -1.089  1.00  0.00     0.006 C 
ENDBRANCH  20  21
ENDBRANCH   6  20
ENDBRANCH   3   4
ENDBRANCH   1   3
BRANCH   1  23
ATOM     23  C   UNL     1       0.152   0.019  -0.178  1.00  0.00     0.237 C 
ATOM     24  O   UNL     1       1.250  -0.421  -0.443  1.00  0.00    -0.273 OA
ATOM     25  N   UNL     1      -0.016   1.344   0.009  1.00  0.00    -0.325 N 
ATOM     26  H   UNL     1      -0.961   1.727   0.154  1.00  0.00     0.169 HD
BRANCH  25  27
ATOM     27  C   UNL     1       1.089   2.194   0.007  1.00  0.00     0.041 A 
ATOM     28  C   UNL     1       0.967   3.489  -0.487  1.00  0.00     0.027 A 
ATOM     29  C   UNL     1       2.309   1.748   0.504  1.00  0.00     0.027 A 
ATOM     30  C   UNL     1       2.056   4.331  -0.491  1.00  0.00     0.016 A 
ATOM     31  C   UNL     1       3.404   2.583   0.499  1.00  0.00     0.016 A 
ATOM     32  C   UNL     1       3.285   3.884   0.003  1.00  0.00     0.039 A 
BRANCH  32  33
ATOM     33  C   UNL     1       4.455   4.784  -0.000  1.00  0.00     0.248 C 
ATOM     34  O   UNL     1       4.350   5.916  -0.433  1.00  0.00    -0.270 OA
ATOM     35  N   UNL     1       5.639   4.352   0.476  1.00  0.00    -0.366 N 
ATOM     36  H   UNL     1       5.727   3.393   0.843  1.00  0.00     0.159 HD
ATOM     37  H   UNL     1       6.455   4.980   0.474  1.00  0.00     0.159 HD
ENDBRANCH  32  33
ENDBRANCH  25  27
ENDBRANCH   1  23
TORSDOF 9
