REMARK SMILES CCc1nn(-c2c(Cl)cc(Cl)cc2Cl)c2nc(Cc3ccc(NC(=O)C[NH3+])cc3)[nH]c(=O)c12
REMARK SMILES IDX 19 1 20 2 21 3 22 4 28 5 29 6 18 7 17 8 3 9 4 10 33 11 5 12
REMARK SMILES IDX 15 13 31 14 16 15 32 16 30 17 2 19 1 20 6 21 7 22 13 23 9 24
REMARK SMILES IDX 8 25 12 26 14 27 10 28 11 29 23 30 24 31 25 33 26 34 27 35
REMARK H PARENT 30 18 23 32 27 36 27 37 27 38
REMARK Flexibility Score: inf
ROOT
ATOM      1  C   UNL     1      -3.520   3.217   0.314  1.00  0.00    -0.040 A 
ATOM      2  C   UNL     1      -3.420   1.839   0.275  1.00  0.00     0.006 A 
ATOM      3  C   UNL     1      -2.178   1.236   0.214  1.00  0.00     0.026 A 
ATOM      4  C   UNL     1      -1.030   2.017   0.194  1.00  0.00     0.041 A 
ATOM      5  C   UNL     1      -1.133   3.401   0.240  1.00  0.00     0.026 A 
ATOM      6  C   UNL     1      -2.378   3.997   0.293  1.00  0.00     0.006 A 
ENDROOT
BRANCH   1   7
ATOM      7  C   UNL     1      -4.876   3.871   0.379  1.00  0.00     0.111 C 
BRANCH   7   8
ATOM      8  C   UNL     1      -5.277   4.052   1.821  1.00  0.00     0.115 A 
ATOM      9  C   UNL     1      -5.992   4.405   5.836  1.00  0.00     0.078 A 
ATOM     10  N   UNL     1      -4.843   3.978   6.283  1.00  0.00    -0.170 NA
ATOM     11  C   UNL     1      -5.964   4.366   4.430  1.00  0.00     0.108 A 
ATOM     12  N   UNL     1      -4.016   3.642   5.203  1.00  0.00    -0.211 N 
ATOM     13  C   UNL     1      -4.702   3.879   4.051  1.00  0.00     0.170 A 
ATOM     14  C   UNL     1      -6.917   4.706   3.373  1.00  0.00     0.262 A 
ATOM     15  N   UNL     1      -4.417   3.745   2.747  1.00  0.00    -0.214 NA
ATOM     16  O   UNL     1      -8.027   5.133   3.637  1.00  0.00    -0.269 OA
ATOM     17  N   UNL     1      -6.516   4.534   2.091  1.00  0.00    -0.310 N 
ATOM     18  H   UNL     1      -7.155   4.770   1.319  1.00  0.00     0.171 HD
BRANCH   9  19
ATOM     19  C   UNL     1      -7.152   4.862   6.683  1.00  0.00     0.056 C 
ATOM     20  C   UNL     1      -8.056   3.668   6.997  1.00  0.00     0.011 C 
ENDBRANCH   9  19
BRANCH  12  21
ATOM     21  C   UNL     1      -2.708   3.147   5.292  1.00  0.00     0.104 A 
ATOM     22  C   UNL     1      -1.745   3.850   6.005  1.00  0.00     0.069 A 
ATOM     23  C   UNL     1      -2.373   1.950   4.673  1.00  0.00     0.069 A 
ATOM     24  C   UNL     1      -0.456   3.359   6.092  1.00  0.00     0.043 A 
ATOM     25  Cl  UNL     1      -2.161   5.344   6.787  1.00  0.00    -0.082 Cl
ATOM     26  C   UNL     1      -1.081   1.466   4.759  1.00  0.00     0.043 A 
ATOM     27  Cl  UNL     1      -3.575   1.064   3.786  1.00  0.00    -0.082 Cl
ATOM     28  C   UNL     1      -0.124   2.169   5.470  1.00  0.00     0.044 A 
ATOM     29  Cl  UNL     1       1.496   1.555   5.581  1.00  0.00    -0.084 Cl
ENDBRANCH  12  21
ENDBRANCH   7   8
ENDBRANCH   1   7
BRANCH   4  30
ATOM     30  N   UNL     1       0.230   1.409   0.133  1.00  0.00    -0.321 N 
ATOM     31  C   UNL     1       1.240   2.017  -0.521  1.00  0.00     0.279 C 
ATOM     32  H   UNL     1       0.385   0.498   0.588  1.00  0.00     0.170 HD
ATOM     33  O   UNL     1       1.036   3.046  -1.130  1.00  0.00    -0.268 OA
BRANCH  31  34
ATOM     34  C   UNL     1       2.622   1.418  -0.495  1.00  0.00     0.360 C 
BRANCH  34  35
ATOM     35  N   UNL     1       3.535   2.283  -1.263  1.00  0.00    -0.350 N 
ATOM     36  H   UNL     1       3.561   3.222  -0.840  1.00  0.00     0.344 HD
ATOM     37  H   UNL     1       3.210   2.353  -2.238  1.00  0.00     0.344 HD
ATOM     38  H   UNL     1       4.482   1.877  -1.248  1.00  0.00     0.344 HD
ENDBRANCH  34  35
ENDBRANCH  31  34
ENDBRANCH   4  30
TORSDOF 7
