REMARK SMILES CC(C)Cc1nc2sc3c(NCC[NH3+])nc(SCc4ccccc4)nc3c2c2c1COC(C)(C)C2
REMARK SMILES IDX 5 1 29 2 28 3 27 4 26 5 9 6 10 7 15 8 16 9 25 10 8 11 7 12
REMARK SMILES IDX 6 13 35 14 32 15 31 16 30 17 33 18 34 19 4 20 2 21 1 22 3 23
REMARK SMILES IDX 11 24 12 26 13 27 14 28 17 32 18 33 19 34 24 35 20 36 23 37
REMARK SMILES IDX 21 38 22 39
REMARK H PARENT 11 25 14 29 14 30 14 31
REMARK Flexibility Score: inf
ROOT
ATOM      1  C   UNL     1       5.762  -2.515  -0.060  1.00  0.00     0.048 A 
ATOM      2  C   UNL     1       6.035  -1.152  -0.053  1.00  0.00     0.003 A 
ATOM      3  C   UNL     1       5.000  -0.249  -0.043  1.00  0.00    -0.025 A 
ATOM      4  C   UNL     1       3.668  -0.721  -0.034  1.00  0.00     0.042 A 
ATOM      5  C   UNL     1       2.428   0.078  -0.020  1.00  0.00     0.098 A 
ATOM      6  C   UNL     1       1.232  -0.648  -0.013  1.00  0.00     0.098 A 
ATOM      7  C   UNL     1       0.002  -0.004   0.002  1.00  0.00     0.149 A 
ATOM      8  N   UNL     1      -0.016   1.328   0.009  1.00  0.00    -0.204 NA
ATOM      9  C   UNL     1       1.125   2.006   0.002  1.00  0.00     0.190 A 
ATOM     10  N   UNL     1       2.306   1.425  -0.013  1.00  0.00    -0.221 NA
ATOM     11  S   UNL     1       1.738  -2.346  -0.028  1.00  0.00    -0.110 S 
ATOM     12  C   UNL     1       3.499  -2.117  -0.042  1.00  0.00     0.126 A 
ATOM     13  N   UNL     1       4.518  -2.950  -0.056  1.00  0.00    -0.241 NA
ATOM     14  C   UNL     1       5.242   1.236  -0.047  1.00  0.00     0.071 C 
ATOM     15  C   UNL     1       6.690   1.523   0.356  1.00  0.00     0.067 C 
ATOM     16  O   UNL     1       7.552   0.680  -0.418  1.00  0.00    -0.370 OA
ATOM     17  C   UNL     1       7.471  -0.697  -0.052  1.00  0.00     0.198 C 
ATOM     18  C   UNL     1       6.879   1.223   1.844  1.00  0.00     0.042 C 
ATOM     19  C   UNL     1       7.024   2.990   0.081  1.00  0.00     0.042 C 
ENDROOT
BRANCH   1  20
ATOM     20  C   UNL     1       6.899  -3.504  -0.075  1.00  0.00     0.059 C 
BRANCH  20  21
ATOM     21  C   UNL     1       7.275  -3.828  -1.522  1.00  0.00    -0.011 C 
ATOM     22  C   UNL     1       8.508  -4.734  -1.538  1.00  0.00     0.008 C 
ATOM     23  C   UNL     1       6.107  -4.544  -2.204  1.00  0.00     0.008 C 
ENDBRANCH  20  21
ENDBRANCH   1  20
BRANCH   7  24
ATOM     24  N   UNL     1      -1.179  -0.730   0.010  1.00  0.00    -0.363 N 
ATOM     25  H   UNL     1      -1.151  -1.759   0.004  1.00  0.00     0.162 HD
BRANCH  24  26
ATOM     26  C   UNL     1      -2.467  -0.032   0.026  1.00  0.00     0.175 C 
BRANCH  26  27
ATOM     27  C   UNL     1      -3.602  -1.058   0.032  1.00  0.00     0.280 C 
BRANCH  27  28
ATOM     28  N   UNL     1      -4.894  -0.358   0.048  1.00  0.00    -0.356 N 
ATOM     29  H   UNL     1      -4.974   0.237  -0.789  1.00  0.00     0.344 HD
ATOM     30  H   UNL     1      -4.958   0.228   0.893  1.00  0.00     0.344 HD
ATOM     31  H   UNL     1      -5.659  -1.048   0.052  1.00  0.00     0.344 HD
ENDBRANCH  27  28
ENDBRANCH  26  27
ENDBRANCH  24  26
ENDBRANCH   7  24
BRANCH   9  32
ATOM     32  S   UNL     1       1.055   3.766   0.011  1.00  0.00    -0.081 SA
BRANCH  32  33
ATOM     33  C   UNL     1      -0.739   4.010   0.029  1.00  0.00     0.113 C 
BRANCH  33  34
ATOM     34  C   UNL     1      -1.045   5.485   0.038  1.00  0.00    -0.038 A 
ATOM     35  C   UNL     1      -1.197   6.168  -1.154  1.00  0.00     0.004 A 
ATOM     36  C   UNL     1      -1.181   6.155   1.240  1.00  0.00     0.004 A 
ATOM     37  C   UNL     1      -1.479   7.521  -1.145  1.00  0.00     0.000 A 
ATOM     38  C   UNL     1      -1.457   7.510   1.249  1.00  0.00     0.000 A 
ATOM     39  C   UNL     1      -1.609   8.192   0.056  1.00  0.00     0.000 A 
ENDBRANCH  33  34
ENDBRANCH  32  33
ENDBRANCH   9  32
TORSDOF 9
