REMARK SMILES O=C(c1ccc(N2CCC([NH2+]C[C@H]3[C@@H]4C[C@H]5C[C@@H](C4)C[C@@H]3C5)CC2)cc1)N1CCOCC1
REMARK SMILES IDX 7 1 8 2 9 3 10 4 23 5 24 6 6 7 4 8 3 9 5 10 26 11 25 12 2 13
REMARK SMILES IDX 1 14 27 15 32 16 28 17 31 18 29 19 30 20 11 21 12 24 13 25
REMARK SMILES IDX 21 26 14 27 20 28 22 29 19 30 15 31 18 32 16 33 17 34
REMARK H PARENT 11 22 11 23
REMARK Flexibility Score: inf
ROOT
ATOM      1  N   UNL     1      -0.103   0.169   5.137  1.00  0.00    -0.371 N 
ATOM      2  C   UNL     1       0.664   1.334   4.681  1.00  0.00     0.122 C 
ATOM      3  C   UNL     1       0.031   1.896   3.405  1.00  0.00     0.086 C 
ATOM      4  C   UNL     1       0.024   0.811   2.325  1.00  0.00     0.185 C 
ATOM      5  C   UNL     1      -0.739  -0.411   2.843  1.00  0.00     0.086 C 
ATOM      6  C   UNL     1      -0.084  -0.905   4.135  1.00  0.00     0.122 C 
ENDROOT
BRANCH   1   7
ATOM      7  C   UNL     1       0.366  -0.287   6.364  1.00  0.00     0.037 A 
ATOM      8  C   UNL     1       0.231  -1.842   8.185  1.00  0.00     0.016 A 
ATOM      9  C   UNL     1       1.301  -1.195   8.810  1.00  0.00     0.040 A 
ATOM     10  C   UNL     1      -0.231  -1.389   6.970  1.00  0.00     0.027 A 
ATOM     11  C   UNL     1       1.898  -0.089   8.199  1.00  0.00     0.016 A 
ATOM     12  C   UNL     1       1.436   0.356   6.981  1.00  0.00     0.027 A 
BRANCH   9  13
ATOM     13  C   UNL     1       1.798  -1.678  10.112  1.00  0.00     0.254 C 
ATOM     14  O   UNL     1       1.868  -2.872  10.332  1.00  0.00    -0.269 OA
ATOM     15  N   UNL     1       2.174  -0.796  11.059  1.00  0.00    -0.334 N 
ATOM     16  C   UNL     1       2.790  -1.250  12.316  1.00  0.00     0.148 C 
ATOM     17  C   UNL     1       1.986   0.651  10.864  1.00  0.00     0.148 C 
ATOM     18  C   UNL     1       2.045  -0.595  13.484  1.00  0.00     0.181 C 
ATOM     19  C   UNL     1       1.276   1.213  12.106  1.00  0.00     0.181 C 
ATOM     20  O   UNL     1       1.995   0.819  13.277  1.00  0.00    -0.378 OA
ENDBRANCH   9  13
ENDBRANCH   1   7
BRANCH   4  21
ATOM     21  N   UNL     1      -0.642   1.334   1.117  1.00  0.00    -0.343 N 
ATOM     22  H   UNL     1      -1.661   1.213   1.210  1.00  0.00     0.346 HD
ATOM     23  H   UNL     1      -0.430   2.337   1.016  1.00  0.00     0.346 HD
BRANCH  21  24
ATOM     24  C   UNL     1      -0.172   0.612  -0.080  1.00  0.00     0.264 C 
BRANCH  24  25
ATOM     25  C   UNL     1      -0.879   1.175  -1.315  1.00  0.00     0.050 C 
ATOM     26  C   UNL     1      -0.307   0.519  -2.573  1.00  0.00    -0.002 C 
ATOM     27  C   UNL     1      -2.378   0.880  -1.222  1.00  0.00    -0.002 C 
ATOM     28  C   UNL     1      -0.527  -0.994  -2.505  1.00  0.00     0.007 C 
ATOM     29  C   UNL     1      -1.015   1.081  -3.808  1.00  0.00     0.007 C 
ATOM     30  C   UNL     1      -2.597  -0.632  -1.154  1.00  0.00     0.007 C 
ATOM     31  C   UNL     1      -3.085   1.443  -2.457  1.00  0.00     0.007 C 
ATOM     32  C   UNL     1      -2.025  -1.288  -2.413  1.00  0.00    -0.010 C 
ATOM     33  C   UNL     1      -2.513   0.787  -3.716  1.00  0.00    -0.010 C 
ATOM     34  C   UNL     1      -2.733  -0.726  -3.647  1.00  0.00     0.007 C 
ENDBRANCH  24  25
ENDBRANCH  21  24
ENDBRANCH   4  21
TORSDOF 5
