REMARK SMILES Cc1nn(Cc2ccccc2Cl)c(C)c1[C@@H]1NC(N)=[NH+]c2nc3ccccc3n21
REMARK SMILES IDX 1 1 2 2 15 3 13 4 4 5 3 6 14 7 16 8 29 9 17 10 21 11 28 12
REMARK SMILES IDX 18 13 20 15 22 16 23 17 27 18 19 19 24 21 26 22 25 25 5 26
REMARK SMILES IDX 6 27 11 28 7 29 10 30 12 31 8 32 9 33
REMARK H PARENT 17 14 20 20 19 23 19 24
REMARK Flexibility Score: inf
ROOT
ATOM      1  C   UNL     1      -0.751   4.119   2.506  1.00  0.00     0.069 C 
ATOM      2  C   UNL     1       0.754   4.125   2.593  1.00  0.00     0.069 A 
ATOM      3  C   UNL     1       1.632   3.580   1.651  1.00  0.00     0.057 A 
ATOM      4  C   UNL     1       2.895   3.783   2.092  1.00  0.00     0.045 A 
ATOM      5  N   UNL     1       2.819   4.441   3.268  1.00  0.00    -0.265 N 
ATOM      6  N   UNL     1       1.464   4.641   3.563  1.00  0.00    -0.177 NA
ATOM      7  C   UNL     1       4.160   3.355   1.394  1.00  0.00     0.067 C 
ENDROOT
BRANCH   3   8
ATOM      8  C   UNL     1       1.241   2.884   0.372  1.00  0.00     0.299 C 
ATOM      9  N   UNL     1      -0.209   2.988   0.168  1.00  0.00    -0.226 N 
ATOM     10  N   UNL     1       1.879   3.548  -0.778  1.00  0.00    -0.277 N 
ATOM     11  C   UNL     1      -0.762   3.973  -0.634  1.00  0.00     0.329 A 
ATOM     12  C   UNL     1      -1.235   2.241   0.665  1.00  0.00     0.118 A 
ATOM     13  C   UNL     1       1.318   4.676  -1.314  1.00  0.00     0.283 C 
ATOM     14  H   UNL     1       2.747   3.163  -1.179  1.00  0.00     0.224 HD
ATOM     15  N   UNL     1       0.012   4.879  -1.274  1.00  0.00    -0.231 N 
ATOM     16  N   UNL     1      -2.069   3.858  -0.628  1.00  0.00    -0.126 NA
ATOM     17  C   UNL     1      -2.425   2.815   0.146  1.00  0.00     0.145 A 
ATOM     18  C   UNL     1      -1.280   1.136   1.506  1.00  0.00     0.040 A 
ATOM     19  N   UNL     1       2.124   5.612  -1.901  1.00  0.00    -0.322 N 
ATOM     20  H   UNL     1      -0.406   5.707  -1.721  1.00  0.00     0.233 HD
ATOM     21  C   UNL     1      -3.678   2.281   0.471  1.00  0.00     0.042 A 
ATOM     22  C   UNL     1      -2.532   0.625   1.812  1.00  0.00     0.003 A 
ATOM     23  H   UNL     1       3.144   5.472  -1.942  1.00  0.00     0.217 HD
ATOM     24  H   UNL     1       1.707   6.463  -2.305  1.00  0.00     0.217 HD
ATOM     25  C   UNL     1      -3.695   1.181   1.310  1.00  0.00     0.003 A 
ENDBRANCH   3   8
BRANCH   5  26
ATOM     26  C   UNL     1       3.953   4.866   4.093  1.00  0.00     0.181 C 
BRANCH  26  27
ATOM     27  C   UNL     1       4.295   6.299   3.776  1.00  0.00    -0.008 A 
ATOM     28  C   UNL     1       3.625   7.327   4.414  1.00  0.00     0.046 A 
ATOM     29  C   UNL     1       5.283   6.585   2.853  1.00  0.00     0.007 A 
ATOM     30  C   UNL     1       3.941   8.643   4.123  1.00  0.00     0.021 A 
ATOM     31  Cl  UNL     1       2.388   6.968   5.578  1.00  0.00    -0.084 Cl
ATOM     32  C   UNL     1       5.594   7.900   2.559  1.00  0.00     0.000 A 
ATOM     33  C   UNL     1       4.925   8.928   3.196  1.00  0.00     0.002 A 
ENDBRANCH  26  27
ENDBRANCH   5  26
TORSDOF 3
