REMARK SMILES Cc1ccc(NC[C@@H](O)Cn2c(C)c(C3CCN(S(=O)(=O)c4ccc(C)cc4)CC3)c3ccccc32)cc1
REMARK SMILES IDX 10 1 8 2 7 3 6 4 5 6 1 7 2 8 38 9 3 10 37 11 4 12 9 13 11 15
REMARK SMILES IDX 36 16 12 17 31 18 35 19 14 20 13 21 32 22 34 23 33 24 15 25
REMARK SMILES IDX 30 26 16 27 29 28 17 29 18 30 19 31 20 32 21 33 22 34 28 35
REMARK SMILES IDX 23 36 27 37 24 38 25 39 26 40
REMARK H PARENT 6 5 9 14
REMARK Flexibility Score: inf
ROOT
ATOM      1  C   UNL     1       3.586   3.851  -0.012  1.00  0.00     0.156 C 
ENDROOT
BRANCH   1   2
ATOM      2  C   UNL     1       4.073   3.764  -1.459  1.00  0.00     0.153 C 
BRANCH   2   3
ATOM      3  C   UNL     1       5.595   3.602  -1.476  1.00  0.00     0.146 C 
BRANCH   3   4
ATOM      4  N   UNL     1       6.074   3.639  -2.860  1.00  0.00    -0.382 N 
ATOM      5  H   UNL     1       5.405   3.759  -3.634  1.00  0.00     0.160 HD
BRANCH   4   6
ATOM      6  C   UNL     1       7.439   3.510  -3.130  1.00  0.00     0.034 A 
ATOM      7  C   UNL     1      11.614   3.118  -3.955  1.00  0.00     0.044 C 
ATOM      8  C   UNL     1      10.142   3.257  -3.664  1.00  0.00    -0.051 A 
ATOM      9  C   UNL     1       9.691   3.222  -2.357  1.00  0.00     0.005 A 
ATOM     10  C   UNL     1       9.245   3.417  -4.704  1.00  0.00     0.005 A 
ATOM     11  C   UNL     1       8.343   3.354  -2.087  1.00  0.00     0.026 A 
ATOM     12  C   UNL     1       7.895   3.544  -4.441  1.00  0.00     0.026 A 
ENDBRANCH   4   6
ENDBRANCH   3   4
ENDBRANCH   2   3
BRANCH   2  13
ATOM     13  O   UNL     1       3.468   2.638  -2.099  1.00  0.00    -0.389 OA
ATOM     14  H   UNL     1       3.717   1.810  -1.616  1.00  0.00     0.211 HD
ENDBRANCH   2  13
ENDBRANCH   1   2
BRANCH   1  15
ATOM     15  N   UNL     1       2.147   4.124   0.003  1.00  0.00    -0.342 N 
ATOM     16  C   UNL     1       1.159   3.165   0.007  1.00  0.00     0.049 A 
ATOM     17  C   UNL     1       1.583   5.371   0.015  1.00  0.00     0.019 A 
ATOM     18  C   UNL     1      -0.075   3.840   0.022  1.00  0.00     0.003 A 
ATOM     19  C   UNL     1       1.175   1.774   0.000  1.00  0.00     0.027 A 
ATOM     20  C   UNL     1       0.245   5.269   0.027  1.00  0.00    -0.016 A 
ATOM     21  C   UNL     1       2.352   6.668   0.014  1.00  0.00     0.065 C 
ATOM     22  C   UNL     1      -1.267   3.112   0.030  1.00  0.00     0.010 A 
ATOM     23  C   UNL     1      -0.013   1.076   0.008  1.00  0.00     0.002 A 
ATOM     24  C   UNL     1      -1.228   1.746   0.017  1.00  0.00     0.001 A 
BRANCH  20  25
ATOM     25  C   UNL     1      -0.741   6.409   0.042  1.00  0.00     0.024 C 
ATOM     26  C   UNL     1      -1.631   6.329  -1.200  1.00  0.00     0.025 C 
ATOM     27  C   UNL     1      -1.608   6.316   1.300  1.00  0.00     0.025 C 
ATOM     28  C   UNL     1      -2.609   7.509  -1.199  1.00  0.00     0.103 C 
ATOM     29  C   UNL     1      -2.585   7.495   1.330  1.00  0.00     0.103 C 
ATOM     30  N   UNL     1      -3.346   7.511   0.073  1.00  0.00    -0.198 NA
BRANCH  30  31
ATOM     31  S   UNL     1      -5.001   7.530   0.088  1.00  0.00     0.243 S 
ATOM     32  O   UNL     1      -5.389   8.079   1.340  1.00  0.00    -0.207 OA
ATOM     33  O   UNL     1      -5.413   8.092  -1.150  1.00  0.00    -0.207 OA
BRANCH  31  34
ATOM     34  C   UNL     1      -5.542   5.853   0.085  1.00  0.00     0.082 A 
ATOM     35  C   UNL     1      -5.742   5.189   1.281  1.00  0.00     0.022 A 
ATOM     36  C   UNL     1      -5.771   5.203  -1.113  1.00  0.00     0.022 A 
ATOM     37  C   UNL     1      -6.166   3.873   1.278  1.00  0.00     0.005 A 
ATOM     38  C   UNL     1      -6.190   3.886  -1.116  1.00  0.00     0.005 A 
ATOM     39  C   UNL     1      -6.391   3.222   0.080  1.00  0.00    -0.051 A 
ATOM     40  C   UNL     1      -6.853   1.787   0.076  1.00  0.00     0.044 C 
ENDBRANCH  31  34
ENDBRANCH  30  31
ENDBRANCH  20  25
ENDBRANCH   1  15
TORSDOF 9
