REMARK SMILES COc1ccc(-c2c(-c3ccc(OCc4ccc(F)cc4)cc3O)n[nH]c2C(F)(F)F)cc1
REMARK SMILES IDX 9 1 10 2 11 3 12 4 22 5 23 6 8 7 7 8 27 9 26 10 25 11 6 13
REMARK SMILES IDX 3 14 33 15 4 16 32 17 5 18 2 19 1 20 28 21 29 22 30 23 31 24
REMARK SMILES IDX 24 25 13 27 14 28 15 29 21 30 16 31 20 32 17 33 18 34 19 35
REMARK H PARENT 26 12 24 26
REMARK Flexibility Score: inf
ROOT
ATOM      1  C   UNL     1       1.040   3.415   0.219  1.00  0.00     0.045 A 
ATOM      2  C   UNL     1      -0.114   4.196   0.177  1.00  0.00     0.018 A 
ATOM      3  C   UNL     1      -1.353   3.602   0.293  1.00  0.00     0.047 A 
ATOM      4  C   UNL     1      -1.456   2.225   0.448  1.00  0.00     0.123 A 
ATOM      5  C   UNL     1      -0.312   1.442   0.496  1.00  0.00     0.093 A 
ATOM      6  C   UNL     1       0.936   2.030   0.380  1.00  0.00     0.128 A 
ENDROOT
BRANCH   1   7
ATOM      7  C   UNL     1       2.373   4.051   0.094  1.00  0.00     0.104 A 
ATOM      8  C   UNL     1       2.751   5.013  -0.876  1.00  0.00     0.040 A 
ATOM      9  C   UNL     1       4.053   5.339  -0.644  1.00  0.00     0.148 A 
ATOM     10  N   UNL     1       4.476   4.620   0.417  1.00  0.00    -0.272 N 
ATOM     11  N   UNL     1       3.413   3.828   0.866  1.00  0.00    -0.174 NA
ATOM     12  H   UNL     1       5.421   4.650   0.827  1.00  0.00     0.190 HD
BRANCH   8  13
ATOM     13  C   UNL     1       1.886   5.565  -1.949  1.00  0.00    -0.014 A 
ATOM     14  C   UNL     1       0.273   6.594  -3.952  1.00  0.00     0.118 A 
ATOM     15  C   UNL     1       0.653   5.260  -3.986  1.00  0.00     0.047 A 
ATOM     16  C   UNL     1       0.700   7.414  -2.916  1.00  0.00     0.047 A 
ATOM     17  C   UNL     1       1.461   4.745  -2.993  1.00  0.00     0.013 A 
ATOM     18  C   UNL     1       1.503   6.904  -1.917  1.00  0.00     0.013 A 
BRANCH  14  19
ATOM     19  O   UNL     1      -0.519   7.099  -4.934  1.00  0.00    -0.497 OA
ATOM     20  C   UNL     1      -0.922   6.200  -5.969  1.00  0.00     0.278 C 
ENDBRANCH  14  19
ENDBRANCH   8  13
BRANCH   9  21
ATOM     21  C   UNL     1       4.876   6.325  -1.433  1.00  0.00     0.433 C 
ATOM     22  F   UNL     1       6.166   6.391  -0.896  1.00  0.00    -0.165 F 
ATOM     23  F   UNL     1       4.947   5.912  -2.767  1.00  0.00    -0.165 F 
ATOM     24  F   UNL     1       4.278   7.588  -1.367  1.00  0.00    -0.165 F 
ENDBRANCH   9  21
ENDBRANCH   1   7
BRANCH   6  25
ATOM     25  O   UNL     1       2.057   1.263   0.422  1.00  0.00    -0.507 OA
ATOM     26  H   UNL     1       2.597   1.643   1.159  1.00  0.00     0.293 HD
ENDBRANCH   6  25
BRANCH   4  27
ATOM     27  O   UNL     1      -2.679   1.645   0.556  1.00  0.00    -0.489 OA
BRANCH  27  28
ATOM     28  C   UNL     1      -3.815   2.510   0.498  1.00  0.00     0.265 C 
BRANCH  28  29
ATOM     29  C   UNL     1      -5.075   1.695   0.635  1.00  0.00    -0.011 A 
ATOM     30  C   UNL     1      -5.611   1.456   1.887  1.00  0.00     0.010 A 
ATOM     31  C   UNL     1      -5.698   1.192  -0.492  1.00  0.00     0.010 A 
ATOM     32  C   UNL     1      -6.767   0.709   2.013  1.00  0.00     0.039 A 
ATOM     33  C   UNL     1      -6.851   0.440  -0.368  1.00  0.00     0.039 A 
ATOM     34  C   UNL     1      -7.388   0.200   0.885  1.00  0.00     0.123 A 
ATOM     35  F   UNL     1      -8.518  -0.531   1.008  1.00  0.00    -0.207 F 
ENDBRANCH  28  29
ENDBRANCH  27  28
ENDBRANCH   4  27
TORSDOF 8
