REMARK SMILES NC(=O)C1CCN(C(=O)c2cc3ccccc3n2C[C@@H]2CCCC[N@H+]2Cc2cccc(C(F)(F)F)c2)CC1
REMARK SMILES IDX 20 1 21 2 22 3 23 4 24 5 25 6 19 8 18 9 14 10 13 11 15 12
REMARK SMILES IDX 12 13 16 14 17 15 11 16 10 17 8 18 9 19 7 20 37 21 6 22
REMARK SMILES IDX 38 23 5 24 4 25 2 26 3 27 1 28 26 31 27 32 36 33 28 34 31 35
REMARK SMILES IDX 29 36 30 37 32 38 33 39 34 40 35 41
REMARK H PARENT 25 7 1 29 1 30
REMARK Flexibility Score: inf
ROOT
ATOM      1  C   UNL     1      -0.647   4.196   2.966  1.00  0.00     0.204 C 
ATOM      2  C   UNL     1      -0.731   4.901   4.321  1.00  0.00     0.067 C 
ATOM      3  C   UNL     1       0.633   5.508   4.661  1.00  0.00     0.012 C 
ATOM      4  C   UNL     1       1.045   6.474   3.546  1.00  0.00     0.062 C 
ATOM      5  C   UNL     1       1.077   5.723   2.213  1.00  0.00     0.262 C 
ATOM      6  N   UNL     1      -0.251   5.162   1.933  1.00  0.00    -0.327 N 
ATOM      7  H   UNL     1      -0.929   5.937   1.952  1.00  0.00     0.348 HD
ENDROOT
BRANCH   1   8
ATOM      8  C   UNL     1      -2.013   3.604   2.613  1.00  0.00     0.187 C 
BRANCH   8   9
ATOM      9  N   UNL     1      -2.391   2.612   3.623  1.00  0.00    -0.330 N 
ATOM     10  C   UNL     1      -4.700   2.710   7.043  1.00  0.00     0.001 A 
ATOM     11  C   UNL     1      -4.068   1.586   6.597  1.00  0.00     0.010 A 
ATOM     12  C   UNL     1      -4.593   3.906   6.345  1.00  0.00     0.002 A 
ATOM     13  C   UNL     1      -3.301   1.636   5.425  1.00  0.00     0.000 A 
ATOM     14  C   UNL     1      -3.845   3.981   5.191  1.00  0.00     0.027 A 
ATOM     15  C   UNL     1      -3.190   2.848   4.716  1.00  0.00     0.049 A 
ATOM     16  C   UNL     1      -2.547   0.671   4.715  1.00  0.00     0.042 A 
ATOM     17  C   UNL     1      -2.002   1.287   3.633  1.00  0.00     0.108 A 
BRANCH  17  18
ATOM     18  C   UNL     1      -1.141   0.643   2.630  1.00  0.00     0.270 C 
ATOM     19  O   UNL     1      -1.121   1.061   1.488  1.00  0.00    -0.267 OA
ATOM     20  N   UNL     1      -0.374  -0.410   2.976  1.00  0.00    -0.337 N 
ATOM     21  C   UNL     1      -0.241  -0.809   4.384  1.00  0.00     0.120 C 
ATOM     22  C   UNL     1       0.348  -1.178   1.953  1.00  0.00     0.120 C 
ATOM     23  C   UNL     1       1.247  -0.881   4.741  1.00  0.00     0.035 C 
ATOM     24  C   UNL     1       1.830  -1.245   2.337  1.00  0.00     0.035 C 
ATOM     25  C   UNL     1       1.960  -1.808   3.754  1.00  0.00     0.081 C 
BRANCH  25  26
ATOM     26  C   UNL     1       3.418  -1.907   4.123  1.00  0.00     0.220 C 
ATOM     27  O   UNL     1       4.269  -1.562   3.330  1.00  0.00    -0.275 OA
ATOM     28  N   UNL     1       3.776  -2.380   5.333  1.00  0.00    -0.369 N 
ATOM     29  H   UNL     1       3.054  -2.673   6.006  1.00  0.00     0.159 HD
ATOM     30  H   UNL     1       4.773  -2.448   5.585  1.00  0.00     0.159 HD
ENDBRANCH  25  26
ENDBRANCH  17  18
ENDBRANCH   8   9
ENDBRANCH   1   8
BRANCH   6  31
ATOM     31  C   UNL     1      -0.294   4.553   0.598  1.00  0.00     0.299 C 
BRANCH  31  32
ATOM     32  C   UNL     1      -0.005   5.604  -0.443  1.00  0.00     0.007 A 
ATOM     33  C   UNL     1       1.278   5.756  -0.934  1.00  0.00     0.022 A 
ATOM     34  C   UNL     1      -1.025   6.411  -0.912  1.00  0.00     0.009 A 
ATOM     35  C   UNL     1       1.542   6.720  -1.889  1.00  0.00     0.056 A 
ATOM     36  C   UNL     1      -0.760   7.378  -1.863  1.00  0.00     0.001 A 
ATOM     37  C   UNL     1       0.523   7.531  -2.353  1.00  0.00     0.013 A 
BRANCH  35  38
ATOM     38  C   UNL     1       2.941   6.887  -2.424  1.00  0.00     0.416 C 
ATOM     39  F   UNL     1       3.113   6.065  -3.543  1.00  0.00    -0.166 F 
ATOM     40  F   UNL     1       3.144   8.222  -2.790  1.00  0.00    -0.166 F 
ATOM     41  F   UNL     1       3.864   6.529  -1.436  1.00  0.00    -0.166 F 
ENDBRANCH  35  38
ENDBRANCH  31  32
ENDBRANCH   6  31
TORSDOF 7
