REMARK SMILES COc1cc2c(cc1OC)CN(C(=O)[C@@H]1C[C@H]([NH2+]CC3CCCCC3)CN1C1Cc3ccccc3C1)CC2
REMARK SMILES IDX 15 1 16 2 17 3 26 4 27 5 13 6 14 7 12 8 3 9 8 10 4 11 7 12
REMARK SMILES IDX 5 13 6 14 38 15 11 16 37 17 2 18 1 19 9 20 10 21 28 22 36 23
REMARK SMILES IDX 29 24 35 25 30 26 34 27 31 28 33 29 32 30 18 31 19 34 20 35
REMARK SMILES IDX 25 36 21 37 24 38 22 39 23 40
REMARK H PARENT 18 32 18 33
REMARK Flexibility Score: inf
ROOT
ATOM      1  C   UNL     1       4.385   1.897   0.131  1.00  0.00     0.153 C 
ATOM      2  C   UNL     1       5.848   1.394   0.065  1.00  0.00     0.095 C 
ATOM      3  C   UNL     1       5.700  -0.070   0.556  1.00  0.00     0.198 C 
ATOM      4  C   UNL     1       4.335  -0.495  -0.027  1.00  0.00     0.150 C 
ATOM      5  N   UNL     1       3.568   0.737  -0.286  1.00  0.00    -0.282 NA
ENDROOT
BRANCH   1   6
ATOM      6  C   UNL     1       4.182   3.050  -0.818  1.00  0.00     0.240 C 
ATOM      7  O   UNL     1       3.430   2.933  -1.762  1.00  0.00    -0.273 OA
BRANCH   6   8
ATOM      8  N   UNL     1       4.838   4.210  -0.618  1.00  0.00    -0.337 N 
ATOM      9  C   UNL     1       5.171   8.165   2.436  1.00  0.00     0.161 A 
ATOM     10  C   UNL     1       5.957   7.181   3.027  1.00  0.00     0.161 A 
ATOM     11  C   UNL     1       4.561   7.916   1.221  1.00  0.00     0.054 A 
ATOM     12  C   UNL     1       6.121   5.965   2.389  1.00  0.00     0.056 A 
ATOM     13  C   UNL     1       4.725   6.692   0.584  1.00  0.00    -0.037 A 
ATOM     14  C   UNL     1       5.511   5.721   1.166  1.00  0.00    -0.021 A 
ATOM     15  C   UNL     1       4.020   6.491  -0.732  1.00  0.00     0.057 C 
ATOM     16  C   UNL     1       5.750   4.385   0.517  1.00  0.00     0.155 C 
ATOM     17  C   UNL     1       4.662   5.355  -1.526  1.00  0.00     0.124 C 
BRANCH   9  18
ATOM     18  O   UNL     1       5.006   9.368   3.050  1.00  0.00    -0.493 OA
ATOM     19  C   UNL     1       4.186  10.329   2.383  1.00  0.00     0.278 C 
ENDBRANCH   9  18
BRANCH  10  20
ATOM     20  O   UNL     1       6.559   7.412   4.224  1.00  0.00    -0.493 OA
ATOM     21  C   UNL     1       7.350   6.354   4.768  1.00  0.00     0.278 C 
ENDBRANCH  10  20
ENDBRANCH   6   8
ENDBRANCH   1   6
BRANCH   5  22
ATOM     22  C   UNL     1       2.282   0.716   0.424  1.00  0.00     0.066 C 
ATOM     23  C   UNL     1       1.433  -0.496  -0.014  1.00  0.00     0.055 C 
ATOM     24  C   UNL     1       1.401   1.909  -0.001  1.00  0.00     0.055 C 
ATOM     25  C   UNL     1       0.002  -0.004   0.002  1.00  0.00    -0.043 A 
ATOM     26  C   UNL     1      -0.017   1.378   0.010  1.00  0.00    -0.043 A 
ATOM     27  C   UNL     1      -1.190  -0.710   0.009  1.00  0.00     0.004 A 
ATOM     28  C   UNL     1      -1.227   2.051   0.020  1.00  0.00     0.004 A 
ATOM     29  C   UNL     1      -2.396  -0.037   0.023  1.00  0.00     0.000 A 
ATOM     30  C   UNL     1      -2.414   1.345   0.031  1.00  0.00     0.000 A 
ENDBRANCH   5  22
BRANCH   3  31
ATOM     31  N   UNL     1       6.778  -0.910   0.019  1.00  0.00    -0.342 N 
ATOM     32  H   UNL     1       6.519  -1.234  -0.924  1.00  0.00     0.346 HD
ATOM     33  H   UNL     1       7.643  -0.354  -0.048  1.00  0.00     0.346 HD
BRANCH  31  34
ATOM     34  C   UNL     1       7.018  -2.074   0.882  1.00  0.00     0.264 C 
BRANCH  34  35
ATOM     35  C   UNL     1       8.146  -2.923   0.291  1.00  0.00     0.044 C 
ATOM     36  C   UNL     1       8.481  -4.066   1.252  1.00  0.00     0.009 C 
ATOM     37  C   UNL     1       7.699  -3.501  -1.053  1.00  0.00     0.009 C 
ATOM     38  C   UNL     1       9.608  -4.915   0.661  1.00  0.00     0.001 C 
ATOM     39  C   UNL     1       8.826  -4.350  -1.643  1.00  0.00     0.001 C 
ATOM     40  C   UNL     1       9.161  -5.493  -0.683  1.00  0.00     0.000 C 
ENDBRANCH  34  35
ENDBRANCH  31  34
ENDBRANCH   3  31
TORSDOF 8
