REMARK SMILES NC1=[NH+]c2nc3ccccc3n2[C@H](c2cn(Cc3ccccc3)nc2-c2ccc3c(c2)OCCCO3)N1
REMARK SMILES IDX 26 1 27 2 28 3 29 4 30 5 31 6 25 7 16 8 24 9 15 10 14 11
REMARK SMILES IDX 17 12 18 13 21 14 22 15 20 16 23 17 19 18 13 19 12 20 37 21
REMARK SMILES IDX 4 22 11 23 2 24 3 26 5 27 6 28 10 29 1 30 7 32 9 33 8 36
REMARK SMILES IDX 32 37 33 38 34 39 36 41 35 42
REMARK H PARENT 37 25 3 31 1 34 1 35
REMARK Flexibility Score: 90.00
ROOT
ATOM      1  C   UNL     1       1.359   6.240  -4.656  1.00  0.00     0.006 A 
ATOM      2  C   UNL     1       0.722   6.388  -5.887  1.00  0.00     0.014 A 
ATOM      3  C   UNL     1       1.463   6.412  -7.052  1.00  0.00     0.051 A 
ATOM      4  C   UNL     1       2.841   6.277  -6.996  1.00  0.00     0.161 A 
ATOM      5  C   UNL     1       3.480   6.123  -5.773  1.00  0.00     0.161 A 
ATOM      6  C   UNL     1       2.745   6.104  -4.602  1.00  0.00     0.060 A 
ENDROOT
BRANCH   1   7
ATOM      7  C   UNL     1       0.561   6.220  -3.405  1.00  0.00     0.101 A 
ATOM      8  N   UNL     1      -0.221   5.711  -1.413  1.00  0.00    -0.267 N 
ATOM      9  N   UNL     1       0.738   5.405  -2.386  1.00  0.00    -0.172 NA
ATOM     10  C   UNL     1      -0.972   6.737  -1.869  1.00  0.00     0.119 A 
ATOM     11  C   UNL     1      -0.515   7.075  -3.095  1.00  0.00     0.059 A 
BRANCH   8  12
ATOM     12  C   UNL     1      -0.379   5.039  -0.120  1.00  0.00     0.179 C 
BRANCH  12  13
ATOM     13  C   UNL     1      -0.551   3.559  -0.342  1.00  0.00    -0.027 A 
ATOM     14  C   UNL     1      -0.866   0.842  -0.748  1.00  0.00     0.000 A 
ATOM     15  C   UNL     1       0.399   1.374  -0.579  1.00  0.00     0.000 A 
ATOM     16  C   UNL     1      -1.973   1.669  -0.719  1.00  0.00     0.000 A 
ATOM     17  C   UNL     1       0.556   2.732  -0.376  1.00  0.00     0.005 A 
ATOM     18  C   UNL     1      -1.816   3.027  -0.511  1.00  0.00     0.005 A 
ENDBRANCH  12  13
ENDBRANCH   8  12
BRANCH  11  19
ATOM     19  C   UNL     1      -1.061   8.170  -3.974  1.00  0.00     0.299 C 
ATOM     20  N   UNL     1      -2.344   8.647  -3.445  1.00  0.00    -0.226 N 
ATOM     21  N   UNL     1      -0.144   9.324  -3.969  1.00  0.00    -0.277 N 
ATOM     22  C   UNL     1      -2.424   9.765  -2.630  1.00  0.00     0.329 A 
ATOM     23  C   UNL     1      -3.608   8.164  -3.602  1.00  0.00     0.118 A 
ATOM     24  C   UNL     1      -0.195  10.231  -2.944  1.00  0.00     0.283 C 
ATOM     25  H   UNL     1       0.533   9.449  -4.735  1.00  0.00     0.224 HD
ATOM     26  N   UNL     1      -1.322  10.476  -2.299  1.00  0.00    -0.231 N 
ATOM     27  N   UNL     1      -3.671   9.954  -2.269  1.00  0.00    -0.126 NA
ATOM     28  C   UNL     1      -4.450   9.014  -2.838  1.00  0.00     0.145 A 
ATOM     29  C   UNL     1      -4.131   7.090  -4.312  1.00  0.00     0.040 A 
ATOM     30  N   UNL     1       0.945  10.896  -2.580  1.00  0.00    -0.322 N 
ATOM     31  H   UNL     1      -1.360  11.193  -1.560  1.00  0.00     0.233 HD
ATOM     32  C   UNL     1      -5.831   8.790  -2.778  1.00  0.00     0.042 A 
ATOM     33  C   UNL     1      -5.500   6.890  -4.240  1.00  0.00     0.003 A 
ATOM     34  H   UNL     1       1.833  10.718  -3.071  1.00  0.00     0.217 HD
ATOM     35  H   UNL     1       0.913  11.578  -1.810  1.00  0.00     0.217 HD
ATOM     36  C   UNL     1      -6.325   7.715  -3.495  1.00  0.00     0.003 A 
ENDBRANCH  11  19
ENDBRANCH   1   7
BRANCH   5  37
ATOM     37  O   UNL     1       4.838   5.989  -5.734  1.00  0.00    -0.490 OA
BRANCH  37  38
ATOM     38  C   UNL     1       5.591   7.148  -6.098  1.00  0.00     0.233 C 
BRANCH  38  39
ATOM     39  C   UNL     1       5.755   7.231  -7.608  1.00  0.00     0.083 CG0
ATOM     40  G   UNL     1       4.428   7.430  -8.324  1.00  0.00     0.000 G0
ENDBRANCH  38  39
ENDBRANCH  37  38
ENDBRANCH   5  37
BRANCH   4  41
ATOM     41  O   UNL     1       3.579   6.295  -8.144  1.00  0.00    -0.490 OA
BRANCH  41  42
ATOM     42  C   UNL     1       4.428   7.430  -8.324  1.00  0.00     0.233 CG0
ATOM     43  G   UNL     1       5.755   7.231  -7.608  1.00  0.00     0.000 G0
ENDBRANCH  41  42
ENDBRANCH   4  41
TORSDOF 4
