REMARK SMILES Cc1nc2ccc(Cl)cc2cc1C(=O)OCC(=O)NC(=O)NC(C)(C)C
REMARK SMILES IDX 16 1 15 2 13 3 14 4 12 5 1 6 2 7 3 8 4 9 11 10 10 11 5 12
REMARK SMILES IDX 9 13 6 14 7 15 8 16 17 17 18 18 19 19 20 20 21 22 22 23
REMARK SMILES IDX 23 25 24 26 25 27 26 28
REMARK H PARENT 19 21 22 24
REMARK Flexibility Score: inf
ROOT
ATOM      1  C   UNL     1      -0.159   1.393  -0.947  1.00  0.00     0.333 C 
ENDROOT
BRANCH   1   2
ATOM      2  O   UNL     1      -0.100  -0.039  -0.711  1.00  0.00    -0.452 OA
BRANCH   2   3
ATOM      3  C   UNL     1      -1.269  -0.671  -0.491  1.00  0.00     0.340 C 
ATOM      4  O   UNL     1      -2.309  -0.043  -0.496  1.00  0.00    -0.246 OA
BRANCH   3   5
ATOM      5  C   UNL     1      -1.286  -2.126  -0.243  1.00  0.00     0.082 A 
ATOM      6  C   UNL     1      -3.743  -1.956   0.258  1.00  0.00     0.067 C 
ATOM      7  C   UNL     1      -2.482  -2.769   0.123  1.00  0.00     0.053 A 
ATOM      8  N   UNL     1      -2.526  -4.058   0.342  1.00  0.00    -0.252 NA
ATOM      9  C   UNL     1      -1.436  -4.827   0.242  1.00  0.00     0.071 A 
ATOM     10  C   UNL     1      -0.118  -2.872  -0.364  1.00  0.00     0.028 A 
ATOM     11  C   UNL     1      -0.190  -4.253  -0.117  1.00  0.00     0.003 A 
ATOM     12  C   UNL     1      -1.505  -6.209   0.488  1.00  0.00     0.030 A 
ATOM     13  C   UNL     1       0.948  -5.072  -0.220  1.00  0.00     0.030 A 
ATOM     14  C   UNL     1      -0.383  -6.973   0.380  1.00  0.00     0.023 A 
ATOM     15  C   UNL     1       0.842  -6.407   0.027  1.00  0.00     0.041 A 
ATOM     16  Cl  UNL     1       2.248  -7.417  -0.100  1.00  0.00    -0.084 Cl
ENDBRANCH   3   5
ENDBRANCH   2   3
ENDBRANCH   1   2
BRANCH   1  17
ATOM     17  C   UNL     1       1.234   1.922  -1.171  1.00  0.00     0.266 C 
ATOM     18  O   UNL     1       2.183   1.168  -1.136  1.00  0.00    -0.271 OA
ATOM     19  N   UNL     1       1.426   3.235  -1.411  1.00  0.00    -0.275 N 
ATOM     20  C   UNL     1       2.671   3.708  -1.612  1.00  0.00     0.321 C 
ATOM     21  H   UNL     1       0.620   3.876  -1.442  1.00  0.00     0.174 HD
ATOM     22  O   UNL     1       3.622   2.952  -1.577  1.00  0.00    -0.248 OA
ATOM     23  N   UNL     1       2.863   5.021  -1.852  1.00  0.00    -0.333 N 
ATOM     24  H   UNL     1       2.057   5.662  -1.882  1.00  0.00     0.165 HD
BRANCH  23  25
ATOM     25  C   UNL     1       4.217   5.536  -2.070  1.00  0.00     0.033 C 
ATOM     26  C   UNL     1       4.836   4.843  -3.286  1.00  0.00     0.034 C 
ATOM     27  C   UNL     1       4.155   7.044  -2.319  1.00  0.00     0.034 C 
ATOM     28  C   UNL     1       5.074   5.258  -0.834  1.00  0.00     0.034 C 
ENDBRANCH  23  25
ENDBRANCH   1  17
TORSDOF 5
