REMARK SMILES c1ccc(CC[NH+]2CCC([NH2+][C@@H]3CCCc4c3cnn4-c3ccccn3)CC2)cc1
REMARK SMILES IDX 8 1 9 2 10 3 27 4 28 5 7 6 6 8 5 9 4 10 1 11 30 12 2 13
REMARK SMILES IDX 29 14 3 15 11 16 12 19 17 20 13 21 16 22 18 23 14 24 15 25
REMARK SMILES IDX 20 26 19 27 21 28 26 29 22 30 25 31 23 32 24 33
REMARK H PARENT 7 7 11 17 11 18
REMARK Flexibility Score: inf
ROOT
ATOM      1  C   UNL     1      -0.013   1.086   0.008  1.00  0.00     0.268 C 
ATOM      2  C   UNL     1      -0.729   1.579   1.267  1.00  0.00     0.126 C 
ATOM      3  C   UNL     1      -0.764   3.110   1.262  1.00  0.00     0.194 C 
ATOM      4  C   UNL     1      -1.466   3.591  -0.011  1.00  0.00     0.126 C 
ATOM      5  C   UNL     1      -0.729   3.040  -1.234  1.00  0.00     0.268 C 
ATOM      6  N   UNL     1      -0.751   1.562  -1.181  1.00  0.00    -0.334 N 
ATOM      7  H   UNL     1      -1.729   1.246  -1.116  1.00  0.00     0.348 HD
ENDROOT
BRANCH   6   8
ATOM      8  C   UNL     1      -0.145   1.005  -2.408  1.00  0.00     0.267 C 
BRANCH   8   9
ATOM      9  C   UNL     1      -0.737   1.716  -3.627  1.00  0.00     0.097 C 
BRANCH   9  10
ATOM     10  C   UNL     1      -0.144   1.134  -4.884  1.00  0.00    -0.042 A 
ATOM     11  C   UNL     1       0.942   0.066  -7.191  1.00  0.00     0.000 A 
ATOM     12  C   UNL     1       1.553   1.140  -6.573  1.00  0.00     0.000 A 
ATOM     13  C   UNL     1      -0.213  -0.474  -6.657  1.00  0.00     0.000 A 
ATOM     14  C   UNL     1       1.007   1.677  -5.422  1.00  0.00     0.004 A 
ATOM     15  C   UNL     1      -0.756   0.060  -5.503  1.00  0.00     0.004 A 
ENDBRANCH   9  10
ENDBRANCH   8   9
ENDBRANCH   6   8
BRANCH   3  16
ATOM     16  N   UNL     1      -1.511   3.592   2.439  1.00  0.00    -0.337 N 
ATOM     17  H   UNL     1      -2.279   2.938   2.648  1.00  0.00     0.347 HD
ATOM     18  H   UNL     1      -1.905   4.522   2.236  1.00  0.00     0.347 HD
BRANCH  16  19
ATOM     19  C   UNL     1      -0.617   3.685   3.609  1.00  0.00     0.217 C 
ATOM     20  C   UNL     1       0.088   5.018   3.606  1.00  0.00     0.051 A 
ATOM     21  C   UNL     1      -1.449   3.580   4.894  1.00  0.00     0.071 C 
ATOM     22  C   UNL     1       0.246   5.798   4.705  1.00  0.00     0.055 A 
ATOM     23  C   UNL     1       0.683   5.669   2.526  1.00  0.00     0.145 A 
ATOM     24  C   UNL     1      -0.574   3.936   6.099  1.00  0.00     0.013 C 
ATOM     25  C   UNL     1      -0.259   5.437   6.079  1.00  0.00     0.057 C 
ATOM     26  N   UNL     1       0.918   6.909   4.329  1.00  0.00    -0.219 N 
ATOM     27  N   UNL     1       1.182   6.803   2.955  1.00  0.00    -0.174 NA
BRANCH  26  28
ATOM     28  C   UNL     1       1.284   7.973   5.159  1.00  0.00     0.153 A 
ATOM     29  N   UNL     1       0.590   8.214   6.259  1.00  0.00    -0.237 NA
ATOM     30  C   UNL     1       2.371   8.769   4.819  1.00  0.00     0.049 A 
ATOM     31  C   UNL     1       0.905   9.204   7.073  1.00  0.00     0.113 A 
ATOM     32  C   UNL     1       2.723   9.819   5.649  1.00  0.00     0.005 A 
ATOM     33  C   UNL     1       1.972  10.035   6.796  1.00  0.00     0.020 A 
ENDBRANCH  26  28
ENDBRANCH  16  19
ENDBRANCH   3  16
TORSDOF 6
