REMARK SMILES COc1ccc([C@@H]2C(C#N)=C(N)Oc3[nH]nc(-c4ccccc4)c32)cc1CSc1nnc(C)s1
REMARK SMILES IDX 26 1 25 2 6 3 5 4 4 5 3 6 27 7 28 8 29 9 33 10 32 11 34 12
REMARK SMILES IDX 31 13 30 14 2 15 1 16 7 17 8 18 24 19 11 20 14 21 17 22
REMARK SMILES IDX 13 23 15 24 16 25 9 27 10 28 12 29 18 32 23 33 19 34 22 35
REMARK SMILES IDX 20 36 21 37
REMARK H PARENT 15 26 12 30 12 31
REMARK Flexibility Score: inf
ROOT
ATOM      1  C   UNL     1       3.461  -3.724   2.664  1.00  0.00     0.005 A 
ATOM      2  C   UNL     1       3.011  -3.297   1.429  1.00  0.00     0.013 A 
ATOM      3  C   UNL     1       1.822  -2.598   1.330  1.00  0.00    -0.034 A 
ATOM      4  C   UNL     1       1.075  -2.334   2.464  1.00  0.00     0.008 A 
ATOM      5  C   UNL     1       1.518  -2.764   3.699  1.00  0.00     0.047 A 
ATOM      6  C   UNL     1       2.714  -3.461   3.802  1.00  0.00     0.122 A 
ENDROOT
BRANCH   1   7
ATOM      7  C   UNL     1       4.760  -4.481   2.772  1.00  0.00     0.116 C 
BRANCH   7   8
ATOM      8  S   UNL     1       4.441  -6.254   2.605  1.00  0.00    -0.089 SA
BRANCH   8   9
ATOM      9  C   UNL     1       6.082  -6.877   2.765  1.00  0.00     0.174 A 
ATOM     10  C   UNL     1       9.616  -9.052   3.051  1.00  0.00     0.081 C 
ATOM     11  C   UNL     1       8.410  -8.152   2.965  1.00  0.00     0.115 A 
ATOM     12  S   UNL     1       6.685  -8.562   2.720  1.00  0.00    -0.091 S 
ATOM     13  N   UNL     1       8.325  -6.840   3.048  1.00  0.00    -0.143 NA
ATOM     14  N   UNL     1       7.226  -6.230   2.949  1.00  0.00    -0.132 NA
ENDBRANCH   8   9
ENDBRANCH   7   8
ENDBRANCH   1   7
BRANCH   6  15
ATOM     15  O   UNL     1       3.152  -3.886   5.017  1.00  0.00    -0.496 OA
ATOM     16  C   UNL     1       2.331  -3.580   6.146  1.00  0.00     0.278 C 
ENDBRANCH   6  15
BRANCH   3  17
ATOM     17  C   UNL     1       1.336  -2.127  -0.017  1.00  0.00     0.103 C 
ATOM     18  C   UNL     1       1.203  -0.624  -0.013  1.00  0.00     0.102 C 
ATOM     19  C   UNL     1      -0.019  -2.719  -0.305  1.00  0.00     0.055 A 
ATOM     20  C   UNL     1       0.002  -0.004   0.002  1.00  0.00     0.207 C 
ATOM     21  C   UNL     1      -1.167  -1.981  -0.277  1.00  0.00     0.222 A 
ATOM     22  C   UNL     1      -0.358  -4.035  -0.633  1.00  0.00     0.100 A 
ATOM     23  O   UNL     1      -1.179  -0.655   0.015  1.00  0.00    -0.422 OA
ATOM     24  N   UNL     1      -2.192  -2.806  -0.576  1.00  0.00    -0.246 N 
ATOM     25  N   UNL     1      -1.666  -4.088  -0.797  1.00  0.00    -0.172 NA
ATOM     26  H   UNL     1      -3.186  -2.541  -0.632  1.00  0.00     0.193 HD
BRANCH  18  27
ATOM     27  C   UNL     1       2.392   0.174  -0.025  1.00  0.00     0.101 C 
ATOM     28  N   UNL     1       3.335   0.807  -0.034  1.00  0.00    -0.193 NA
ENDBRANCH  18  27
BRANCH  20  29
ATOM     29  N   UNL     1      -0.017   1.369   0.010  1.00  0.00    -0.369 N 
ATOM     30  H   UNL     1      -0.903   1.893   0.025  1.00  0.00     0.159 HD
ATOM     31  H   UNL     1       0.877   1.881  -0.000  1.00  0.00     0.159 HD
ENDBRANCH  20  29
BRANCH  22  32
ATOM     32  C   UNL     1       0.587  -5.170  -0.774  1.00  0.00     0.002 A 
ATOM     33  C   UNL     1       0.201  -6.453  -0.389  1.00  0.00     0.010 A 
ATOM     34  C   UNL     1       1.861  -4.960  -1.298  1.00  0.00     0.010 A 
ATOM     35  C   UNL     1       1.084  -7.505  -0.522  1.00  0.00     0.001 A 
ATOM     36  C   UNL     1       2.737  -6.019  -1.423  1.00  0.00     0.001 A 
ATOM     37  C   UNL     1       2.349  -7.289  -1.038  1.00  0.00     0.000 A 
ENDBRANCH  22  32
ENDBRANCH   3  17
TORSDOF 8
