REMARK SMILES Cc1cc([O-])c(C=O)c2c1C(=O)Oc1c(CO)c(O)c3c(c1O2)[C@@H](O)OC3=O
REMARK SMILES IDX 1 1 2 2 3 3 4 4 6 5 9 6 10 7 11 8 12 9 13 10 14 11 15 12
REMARK SMILES IDX 18 13 20 14 21 15 22 16 23 17 24 18 26 19 27 20 28 21 5 22
REMARK SMILES IDX 7 23 8 24 16 25 17 26 25 28 19 30
REMARK H PARENT 17 27 25 29 19 31
REMARK Flexibility Score: inf
ROOT
ATOM      1  C   UNL     1      -2.805   6.943   3.798  1.00  0.00     0.045 C 
ATOM      2  C   UNL     1      -2.624   5.529   3.309  1.00  0.00    -0.033 A 
ATOM      3  C   UNL     1      -3.669   4.632   3.387  1.00  0.00    -0.003 A 
ATOM      4  C   UNL     1      -3.516   3.326   2.943  1.00  0.00    -0.094 A 
ATOM      5  C   UNL     1      -2.276   2.894   2.429  1.00  0.00     0.050 A 
ATOM      6  C   UNL     1      -1.211   3.800   2.370  1.00  0.00     0.152 A 
ATOM      7  C   UNL     1      -1.398   5.125   2.776  1.00  0.00     0.106 A 
ATOM      8  C   UNL     1      -0.308   6.087   2.554  1.00  0.00     0.347 C 
ATOM      9  O   UNL     1       0.209   6.659   3.493  1.00  0.00    -0.246 OA
ATOM     10  O   UNL     1       0.105   6.325   1.302  1.00  0.00    -0.418 OA
ATOM     11  C   UNL     1       0.627   5.326   0.538  1.00  0.00     0.183 A 
ATOM     12  C   UNL     1       1.249   5.753  -0.640  1.00  0.00     0.067 A 
ATOM     13  C   UNL     1       1.825   4.853  -1.513  1.00  0.00     0.140 A 
ATOM     14  C   UNL     1       1.786   3.484  -1.213  1.00  0.00     0.115 A 
ATOM     15  C   UNL     1       1.163   3.065  -0.036  1.00  0.00     0.085 A 
ATOM     16  C   UNL     1       0.586   3.975   0.838  1.00  0.00     0.181 A 
ATOM     17  O   UNL     1       0.014   3.442   1.944  1.00  0.00    -0.451 OA
ATOM     18  C   UNL     1       1.286   1.562  -0.002  1.00  0.00     0.345 C 
ATOM     19  O   UNL     1       2.002   1.185  -1.211  1.00  0.00    -0.428 OA
ATOM     20  C   UNL     1       2.292   2.295  -1.912  1.00  0.00     0.345 C 
ATOM     21  O   UNL     1       2.887   2.312  -2.972  1.00  0.00    -0.246 OA
ATOM     22  O   UNL     1      -4.559   2.465   3.003  1.00  0.00    -0.872 OA
ENDROOT
BRANCH   5  23
ATOM     23  C   UNL     1      -2.106   1.516   1.963  1.00  0.00     0.263 C 
ATOM     24  O   UNL     1      -3.035   0.738   2.018  1.00  0.00    -0.298 OA
ENDBRANCH   5  23
BRANCH  12  25
ATOM     25  C   UNL     1       1.290   7.225  -0.962  1.00  0.00     0.199 C 
BRANCH  25  26
ATOM     26  O   UNL     1       0.133   7.579  -1.722  1.00  0.00    -0.391 OA
ATOM     27  H   UNL     1      -0.682   7.380  -1.196  1.00  0.00     0.211 HD
ENDBRANCH  25  26
ENDBRANCH  12  25
BRANCH  18  28
ATOM     28  O   UNL     1      -0.011   0.963   0.007  1.00  0.00    -0.355 OA
ATOM     29  H   UNL     1      -0.502   1.235  -0.808  1.00  0.00     0.215 HD
ENDBRANCH  18  28
BRANCH  13  30
ATOM     30  O   UNL     1       2.423   5.288  -2.651  1.00  0.00    -0.507 OA
ATOM     31  H   UNL     1       3.106   5.937  -2.345  1.00  0.00     0.293 HD
ENDBRANCH  13  30
TORSDOF 5
