REMARK SMILES CC1(C)Cc2c(cnn2-c2ccccc2)C(=O)/C1=N\NC(=O)c1cc(Br)ccc1[O-]
REMARK SMILES IDX 1 1 2 2 4 3 5 4 6 5 7 6 8 7 9 8 16 9 17 10 18 11 19 12 3 13
REMARK SMILES IDX 20 14 21 15 22 17 23 18 29 19 24 20 28 21 30 22 25 23 27 24
REMARK SMILES IDX 26 25 10 26 15 27 11 28 14 29 12 30 13 31
REMARK H PARENT 20 16
REMARK Flexibility Score: inf
ROOT
ATOM      1  C   UNL     1       2.285   0.425  -8.371  1.00  0.00     0.018 C 
ATOM      2  C   UNL     1       1.311   1.299  -7.578  1.00  0.00     0.018 C 
ATOM      3  C   UNL     1       1.091   2.619  -8.322  1.00  0.00     0.070 C 
ATOM      4  C   UNL     1       2.313   3.490  -8.205  1.00  0.00     0.056 A 
ATOM      5  C   UNL     1       3.271   3.364  -7.208  1.00  0.00     0.066 A 
ATOM      6  C   UNL     1       4.245   4.344  -7.418  1.00  0.00     0.148 A 
ATOM      7  N   UNL     1       3.902   5.022  -8.485  1.00  0.00    -0.175 NA
ATOM      8  N   UNL     1       2.701   4.503  -8.991  1.00  0.00    -0.237 N 
ATOM      9  C   UNL     1       3.164   2.326  -6.159  1.00  0.00     0.213 C 
ATOM     10  O   UNL     1       4.042   2.111  -5.343  1.00  0.00    -0.287 OA
ATOM     11  C   UNL     1       1.884   1.568  -6.201  1.00  0.00     0.115 C 
ATOM     12  N   UNL     1       1.287   1.165  -5.117  1.00  0.00    -0.173 NA
ATOM     13  C   UNL     1      -0.025   0.566  -7.438  1.00  0.00     0.018 C 
ENDROOT
BRANCH  12  14
ATOM     14  N   UNL     1       1.852   1.436  -3.864  1.00  0.00    -0.243 N 
ATOM     15  C   UNL     1       1.235   1.018  -2.741  1.00  0.00     0.270 C 
ATOM     16  H   UNL     1       2.740   1.954  -3.801  1.00  0.00     0.194 HD
ATOM     17  O   UNL     1       0.187   0.406  -2.816  1.00  0.00    -0.267 OA
BRANCH  15  18
ATOM     18  C   UNL     1       1.829   1.303  -1.423  1.00  0.00     0.034 A 
ATOM     19  C   UNL     1       1.190   0.871  -0.253  1.00  0.00    -0.096 A 
ATOM     20  C   UNL     1       3.034   2.007  -1.333  1.00  0.00     0.029 A 
ATOM     21  C   UNL     1       1.756   1.150   0.983  1.00  0.00    -0.007 A 
ATOM     22  O   UNL     1       0.021   0.188  -0.328  1.00  0.00    -0.872 OA
ATOM     23  C   UNL     1       3.584   2.271  -0.097  1.00  0.00     0.018 A 
ATOM     24  C   UNL     1       2.948   1.841   1.058  1.00  0.00     0.015 A 
ATOM     25  Br  UNL     1       5.214   3.223   0.025  1.00  0.00    -0.051 Br
ENDBRANCH  15  18
ENDBRANCH  12  14
BRANCH   8  26
ATOM     26  C   UNL     1       2.022   4.965 -10.126  1.00  0.00     0.065 A 
ATOM     27  C   UNL     1       0.639   5.087 -10.108  1.00  0.00     0.028 A 
ATOM     28  C   UNL     1       2.732   5.309 -11.269  1.00  0.00     0.028 A 
ATOM     29  C   UNL     1      -0.027   5.543 -11.228  1.00  0.00     0.002 A 
ATOM     30  C   UNL     1       2.059   5.758 -12.388  1.00  0.00     0.002 A 
ATOM     31  C   UNL     1       0.681   5.879 -12.367  1.00  0.00     0.000 A 
ENDBRANCH   8  26
TORSDOF 3
