REMARK SMILES c1cc2c(cc1-c1n[nH]cc1CNCC1([NH+]3CCCCC3)CCCCC1)OCO2
REMARK SMILES IDX 13 1 12 3 11 4 7 5 8 6 9 7 10 8 6 10 1 11 2 12 5 13 3 14
REMARK SMILES IDX 4 15 29 16 27 17 28 18 14 19 15 20 26 21 22 22 25 23 23 24
REMARK SMILES IDX 24 25 16 26 17 27 21 28 18 30 20 31 19 32
REMARK H PARENT 13 2 9 9 16 29
REMARK Flexibility Score: inf
ROOT
ATOM      1  N   UNL     1       4.002  -1.880   0.390  1.00  0.00    -0.307 NA
ATOM      2  H   UNL     1       4.943  -1.615   0.064  1.00  0.00     0.123 HD
ENDROOT
BRANCH   1   3
ATOM      3  C   UNL     1       3.912  -3.349   0.481  1.00  0.00     0.121 C 
BRANCH   3   4
ATOM      4  C   UNL     1       4.275  -3.950  -0.852  1.00  0.00     0.012 A 
ATOM      5  C   UNL     1       3.458  -3.978  -1.999  1.00  0.00     0.097 A 
ATOM      6  N   UNL     1       4.128  -4.583  -2.958  1.00  0.00    -0.175 NA
ATOM      7  N   UNL     1       5.375  -4.962  -2.446  1.00  0.00    -0.285 N 
ATOM      8  C   UNL     1       5.440  -4.563  -1.157  1.00  0.00     0.110 A 
ATOM      9  H   UNL     1       6.115  -5.458  -2.963  1.00  0.00     0.189 HD
BRANCH   5  10
ATOM     10  C   UNL     1       2.087  -3.421  -2.109  1.00  0.00     0.006 A 
ATOM     11  C   UNL     1       1.171  -3.615  -1.078  1.00  0.00     0.014 A 
ATOM     12  C   UNL     1      -0.104  -3.096  -1.180  1.00  0.00     0.051 A 
ATOM     13  C   UNL     1       1.716  -2.698  -3.241  1.00  0.00     0.061 A 
ATOM     14  C   UNL     1      -0.477  -2.381  -2.308  1.00  0.00     0.165 A 
ATOM     15  C   UNL     1       0.436  -2.184  -3.342  1.00  0.00     0.166 A 
ATOM     16  O   UNL     1      -1.654  -1.778  -2.645  1.00  0.00    -0.454 OA
ATOM     17  O   UNL     1      -0.170  -1.458  -4.327  1.00  0.00    -0.454 OA
ATOM     18  C   UNL     1      -1.327  -0.864  -3.709  1.00  0.00     0.468 C 
ENDBRANCH   5  10
ENDBRANCH   3   4
ENDBRANCH   1   3
BRANCH   1  19
ATOM     19  C   UNL     1       3.752  -1.268   1.709  1.00  0.00     0.150 C 
BRANCH  19  20
ATOM     20  C   UNL     1       3.853   0.254   1.583  1.00  0.00     0.110 C 
ATOM     21  C   UNL     1       5.253   0.634   1.096  1.00  0.00     0.070 C 
ATOM     22  C   UNL     1       3.595   0.896   2.947  1.00  0.00     0.070 C 
ATOM     23  C   UNL     1       6.294   0.136   2.100  1.00  0.00     0.006 C 
ATOM     24  C   UNL     1       4.636   0.398   3.951  1.00  0.00     0.006 C 
ATOM     25  C   UNL     1       6.036   0.778   3.464  1.00  0.00     0.000 C 
BRANCH  20  26
ATOM     26  N   UNL     1       2.858   0.718   0.593  1.00  0.00    -0.329 N 
ATOM     27  C   UNL     1       1.494   0.384   1.054  1.00  0.00     0.262 C 
ATOM     28  C   UNL     1       2.985   2.178   0.397  1.00  0.00     0.262 C 
ATOM     29  H   UNL     1       3.033   0.244  -0.305  1.00  0.00     0.348 HD
ATOM     30  C   UNL     1       0.493   0.767  -0.039  1.00  0.00     0.062 C 
ATOM     31  C   UNL     1       2.029   2.614  -0.715  1.00  0.00     0.062 C 
ATOM     32  C   UNL     1       0.593   2.270  -0.311  1.00  0.00     0.012 C 
ENDBRANCH  20  26
ENDBRANCH  19  20
ENDBRANCH   1  19
TORSDOF 6
