REMARK SMILES Nc1nc(N)nc(CSCC(=O)N2N=C3/C(=C/c4ccccc4)CCC[C@H]3[C@H]2c2ccccc2)n1
REMARK SMILES IDX 10 1 11 2 12 3 13 4 17 5 16 6 15 7 24 8 27 9 14 10 25 11
REMARK SMILES IDX 26 12 28 13 18 14 21 15 22 16 20 17 23 18 19 19 29 20 34 21
REMARK SMILES IDX 30 22 33 23 31 24 32 25 9 26 8 27 7 28 35 29 6 30 2 31 4 32
REMARK SMILES IDX 3 33 1 34 5 37
REMARK H PARENT 1 35 1 36 5 38 5 39
REMARK Flexibility Score: inf
ROOT
ATOM      1  C   UNL     1      -0.647   0.666  -0.334  1.00  0.00     0.172 C 
ENDROOT
BRANCH   1   2
ATOM      2  C   UNL     1      -1.002   1.515  -1.527  1.00  0.00     0.253 C 
ATOM      3  O   UNL     1      -1.918   2.307  -1.457  1.00  0.00    -0.272 OA
BRANCH   2   4
ATOM      4  N   UNL     1      -0.302   1.394  -2.672  1.00  0.00    -0.224 N 
ATOM      5  C   UNL     1       2.997  -1.027  -4.005  1.00  0.00     0.013 C 
ATOM      6  C   UNL     1       2.346  -0.060  -4.683  1.00  0.00    -0.024 C 
ATOM      7  C   UNL     1       1.363   0.715  -4.023  1.00  0.00     0.070 C 
ATOM      8  C   UNL     1       2.673   0.181  -6.126  1.00  0.00     0.037 C 
ATOM      9  C   UNL     1       0.829   2.012  -4.626  1.00  0.00     0.070 C 
ATOM     10  N   UNL     1       0.773   0.525  -2.894  1.00  0.00    -0.174 NA
ATOM     11  C   UNL     1       2.037   1.426  -6.708  1.00  0.00     0.006 C 
ATOM     12  C   UNL     1       0.663   1.740  -6.122  1.00  0.00     0.013 C 
ATOM     13  C   UNL     1      -0.536   2.151  -3.923  1.00  0.00     0.150 C 
BRANCH   5  14
ATOM     14  C   UNL     1       3.900  -1.946  -4.719  1.00  0.00    -0.025 A 
ATOM     15  C   UNL     1       5.599  -3.673  -6.061  1.00  0.00     0.000 A 
ATOM     16  C   UNL     1       5.987  -3.130  -4.849  1.00  0.00     0.001 A 
ATOM     17  C   UNL     1       4.367  -3.357  -6.607  1.00  0.00     0.001 A 
ATOM     18  C   UNL     1       5.149  -2.265  -4.177  1.00  0.00     0.008 A 
ATOM     19  C   UNL     1       3.515  -2.498  -5.944  1.00  0.00     0.008 A 
ENDBRANCH   5  14
BRANCH  13  20
ATOM     20  C   UNL     1      -1.635   1.520  -4.739  1.00  0.00    -0.023 A 
ATOM     21  C   UNL     1      -2.539   2.318  -5.415  1.00  0.00     0.006 A 
ATOM     22  C   UNL     1      -1.735   0.144  -4.817  1.00  0.00     0.006 A 
ATOM     23  C   UNL     1      -3.547   1.739  -6.164  1.00  0.00     0.000 A 
ATOM     24  C   UNL     1      -2.745  -0.435  -5.562  1.00  0.00     0.000 A 
ATOM     25  C   UNL     1      -3.650   0.363  -6.237  1.00  0.00     0.000 A 
ENDBRANCH  13  20
ENDBRANCH   2   4
ENDBRANCH   1   2
BRANCH   1  26
ATOM     26  S   UNL     1      -1.764   1.059   1.041  1.00  0.00    -0.144 SA
BRANCH  26  27
ATOM     27  C   UNL     1      -1.211  -0.032   2.381  1.00  0.00     0.147 C 
BRANCH  27  28
ATOM     28  C   UNL     1      -2.067   0.196   3.600  1.00  0.00     0.146 A 
ATOM     29  N   UNL     1      -3.169  -0.513   3.774  1.00  0.00    -0.197 NA
ATOM     30  N   UNL     1      -1.711   1.101   4.495  1.00  0.00    -0.197 NA
ATOM     31  C   UNL     1      -3.927  -0.315   4.849  1.00  0.00     0.225 A 
ATOM     32  C   UNL     1      -2.468   1.309   5.570  1.00  0.00     0.225 A 
ATOM     33  N   UNL     1      -3.576   0.598   5.749  1.00  0.00    -0.177 NA
BRANCH  31  34
ATOM     34  N   UNL     1      -5.077  -1.056   5.030  1.00  0.00    -0.368 N 
ATOM     35  H   UNL     1      -5.663  -0.902   5.863  1.00  0.00     0.159 HD
ATOM     36  H   UNL     1      -5.349  -1.764   4.333  1.00  0.00     0.159 HD
ENDBRANCH  31  34
BRANCH  32  37
ATOM     37  N   UNL     1      -2.099   2.258   6.501  1.00  0.00    -0.368 N 
ATOM     38  H   UNL     1      -1.237   2.805   6.364  1.00  0.00     0.159 HD
ATOM     39  H   UNL     1      -2.684   2.418   7.333  1.00  0.00     0.159 HD
ENDBRANCH  32  37
ENDBRANCH  27  28
ENDBRANCH  26  27
ENDBRANCH   1  26
TORSDOF 9
