REMARK SMILES Cc1nn(Cc2ccccc2Cl)c2sc(C(=O)N(C)Cc3c(Cl)nc4sccn34)cc12
REMARK SMILES IDX 16 1 17 2 15 3 1 4 2 5 3 6 31 7 4 8 13 9 30 10 14 11 5 12
REMARK SMILES IDX 6 13 11 14 7 15 10 16 12 17 8 18 9 19 18 20 19 21 20 22
REMARK SMILES IDX 21 23 29 24 22 25 25 26 28 27 24 28 23 29 26 30 27 31
REMARK H PARENT
REMARK Flexibility Score: inf
ROOT
ATOM      1  C   UNL     1       4.427  -2.771   0.169  1.00  0.00     0.264 C 
ATOM      2  O   UNL     1       4.013  -3.915   0.198  1.00  0.00    -0.268 OA
ENDROOT
BRANCH   1   3
ATOM      3  C   UNL     1       3.531  -1.659   0.502  1.00  0.00     0.095 A 
ATOM      4  C   UNL     1      -1.042  -0.928   1.397  1.00  0.00     0.069 C 
ATOM      5  C   UNL     1       0.181  -0.050   1.331  1.00  0.00     0.068 A 
ATOM      6  N   UNL     1       0.199   1.233   1.536  1.00  0.00    -0.176 NA
ATOM      7  C   UNL     1       1.510  -0.496   1.034  1.00  0.00     0.035 A 
ATOM      8  N   UNL     1       1.508   1.709   1.390  1.00  0.00    -0.250 N 
ATOM      9  C   UNL     1       2.299   0.663   1.087  1.00  0.00     0.122 A 
ATOM     10  C   UNL     1       2.187  -1.686   0.726  1.00  0.00     0.038 A 
ATOM     11  S   UNL     1       3.928   0.068   0.714  1.00  0.00    -0.110 S 
BRANCH   8  12
ATOM     12  C   UNL     1       1.941   3.101   1.542  1.00  0.00     0.183 C 
BRANCH  12  13
ATOM     13  C   UNL     1       2.325   3.353   2.978  1.00  0.00    -0.008 A 
ATOM     14  C   UNL     1       1.345   3.596   3.923  1.00  0.00     0.046 A 
ATOM     15  C   UNL     1       3.657   3.348   3.348  1.00  0.00     0.007 A 
ATOM     16  C   UNL     1       1.699   3.823   5.242  1.00  0.00     0.021 A 
ATOM     17  Cl  UNL     1      -0.327   3.611   3.458  1.00  0.00    -0.084 Cl
ATOM     18  C   UNL     1       4.009   3.579   4.664  1.00  0.00     0.000 A 
ATOM     19  C   UNL     1       3.030   3.817   5.611  1.00  0.00     0.002 A 
ENDBRANCH  12  13
ENDBRANCH   8  12
ENDBRANCH   1   3
BRANCH   1  20
ATOM     20  N   UNL     1       5.709  -2.526  -0.168  1.00  0.00    -0.335 N 
ATOM     21  C   UNL     1       6.217  -1.151  -0.165  1.00  0.00     0.147 C 
BRANCH  20  22
ATOM     22  C   UNL     1       6.594  -3.633  -0.538  1.00  0.00     0.177 C 
BRANCH  22  23
ATOM     23  C   UNL     1       6.511  -3.867  -2.024  1.00  0.00     0.082 A 
ATOM     24  N   UNL     1       7.309  -3.268  -2.996  1.00  0.00    -0.291 N 
ATOM     25  C   UNL     1       5.659  -4.697  -2.650  1.00  0.00     0.154 A 
ATOM     26  C   UNL     1       6.866  -3.789  -4.183  1.00  0.00     0.195 A 
ATOM     27  C   UNL     1       8.344  -2.361  -3.061  1.00  0.00     0.105 A 
ATOM     28  N   UNL     1       5.892  -4.626  -3.970  1.00  0.00    -0.206 NA
ATOM     29  Cl  UNL     1       4.457  -5.687  -1.882  1.00  0.00    -0.060 Cl
ATOM     30  S   UNL     1       7.914  -2.992  -5.377  1.00  0.00    -0.105 S 
ATOM     31  C   UNL     1       8.878  -2.016  -4.232  1.00  0.00     0.087 A 
ENDBRANCH  22  23
ENDBRANCH  20  22
ENDBRANCH   1  20
TORSDOF 6
