REMARK SMILES CC1=C(C(=O)OC(C)(C)C)[C@@H](c2ccc(Cl)cc2)C(C#N)=C(SCC(=O)Nc2cc(C)ccc2C)N1
REMARK SMILES IDX 22 1 19 2 11 3 3 4 2 5 36 6 1 7 23 9 24 10 25 11 27 12 26 14
REMARK SMILES IDX 28 15 31 16 30 17 29 18 32 19 33 20 34 21 35 22 20 23 21 24
REMARK SMILES IDX 12 25 18 26 13 27 17 28 14 29 15 30 16 31 4 32 5 33 6 34
REMARK SMILES IDX 7 35 8 36 9 37 10 38
REMARK H PARENT 36 8 27 13
REMARK Flexibility Score: inf
ROOT
ATOM      1  C   UNL     1      -5.071   2.294  -1.186  1.00  0.00     0.088 C 
ATOM      2  C   UNL     1      -4.065   3.187  -0.997  1.00  0.00     0.072 C 
ATOM      3  C   UNL     1      -3.478   3.426   0.365  1.00  0.00     0.102 C 
ATOM      4  C   UNL     1      -4.379   2.884   1.437  1.00  0.00     0.069 C 
ATOM      5  C   UNL     1      -5.362   2.011   1.158  1.00  0.00     0.024 C 
ATOM      6  N   UNL     1      -5.586   1.587  -0.122  1.00  0.00    -0.353 N 
ATOM      7  C   UNL     1      -6.231   1.491   2.275  1.00  0.00     0.065 C 
ATOM      8  H   UNL     1      -6.141   0.736  -0.291  1.00  0.00     0.167 HD
ENDROOT
BRANCH   1   9
ATOM      9  S   UNL     1      -5.722   2.038  -2.803  1.00  0.00    -0.098 SA
BRANCH   9  10
ATOM     10  C   UNL     1      -6.982   0.790  -2.441  1.00  0.00     0.176 C 
BRANCH  10  11
ATOM     11  C   UNL     1      -7.690   0.407  -3.715  1.00  0.00     0.234 C 
ATOM     12  N   UNL     1      -8.675  -0.513  -3.688  1.00  0.00    -0.325 N 
ATOM     13  H   UNL     1      -8.989  -0.905  -2.788  1.00  0.00     0.169 HD
ATOM     14  O   UNL     1      -7.374   0.926  -4.764  1.00  0.00    -0.274 OA
BRANCH  12  15
ATOM     15  C   UNL     1      -9.271  -0.936  -4.881  1.00  0.00     0.044 A 
ATOM     16  C   UNL     1     -10.210   0.509  -8.245  1.00  0.00     0.044 C 
ATOM     17  C   UNL     1     -10.027  -0.461  -7.106  1.00  0.00    -0.049 A 
ATOM     18  C   UNL     1      -9.439  -0.041  -5.930  1.00  0.00     0.029 A 
ATOM     19  C   UNL     1     -10.448  -1.771  -7.241  1.00  0.00     0.004 A 
ATOM     20  C   UNL     1     -10.282  -2.665  -6.199  1.00  0.00     0.006 A 
ATOM     21  C   UNL     1      -9.689  -2.252  -5.022  1.00  0.00    -0.027 A 
ATOM     22  C   UNL     1      -9.502  -3.228  -3.889  1.00  0.00     0.046 C 
ENDBRANCH  12  15
ENDBRANCH  10  11
ENDBRANCH   9  10
ENDBRANCH   1   9
BRANCH   2  23
ATOM     23  C   UNL     1      -3.554   3.915  -2.120  1.00  0.00     0.098 C 
ATOM     24  N   UNL     1      -3.148   4.492  -3.010  1.00  0.00    -0.193 NA
ENDBRANCH   2  23
BRANCH   3  25
ATOM     25  C   UNL     1      -2.137   2.743   0.454  1.00  0.00    -0.035 A 
ATOM     26  C   UNL     1      -0.997   3.488   0.694  1.00  0.00     0.006 A 
ATOM     27  C   UNL     1      -2.046   1.374   0.288  1.00  0.00     0.006 A 
ATOM     28  C   UNL     1       0.233   2.863   0.775  1.00  0.00     0.021 A 
ATOM     29  C   UNL     1      -0.818   0.747   0.375  1.00  0.00     0.021 A 
ATOM     30  C   UNL     1       0.323   1.491   0.615  1.00  0.00     0.041 A 
ATOM     31  Cl  UNL     1       1.868   0.705   0.717  1.00  0.00    -0.084 Cl
ENDBRANCH   3  25
BRANCH   4  32
ATOM     32  C   UNL     1      -4.189   3.303   2.773  1.00  0.00     0.337 C 
ATOM     33  O   UNL     1      -4.971   2.954   3.638  1.00  0.00    -0.246 OA
BRANCH  32  34
ATOM     34  O   UNL     1      -3.140   4.090   3.091  1.00  0.00    -0.457 OA
BRANCH  34  35
ATOM     35  C   UNL     1      -3.009   4.475   4.461  1.00  0.00     0.104 C 
ATOM     36  C   UNL     1      -2.863   3.225   5.330  1.00  0.00     0.056 C 
ATOM     37  C   UNL     1      -1.770   5.359   4.626  1.00  0.00     0.056 C 
ATOM     38  C   UNL     1      -4.253   5.255   4.892  1.00  0.00     0.056 C 
ENDBRANCH  34  35
ENDBRANCH  32  34
ENDBRANCH   4  32
TORSDOF 9
