REMARK SMILES C[C@]12CCC[C@]3(CO3)[C@@H]1C[C@@H]1[C@@H](C2)OC(=O)[C@@H]1C[NH+]1CCC(C(O)(c2ccccc2)c2ccccc2)CC1
REMARK SMILES IDX 20 1 21 2 22 3 37 4 38 5 19 6 18 8 17 9 1 10 2 11 9 12 13 13
REMARK SMILES IDX 3 14 6 15 10 16 12 17 4 18 5 19 8 20 7 21 11 22 14 23 15 24
REMARK SMILES IDX 16 25 23 26 25 27 30 28 26 29 29 30 27 31 28 32 31 33 36 34
REMARK SMILES IDX 32 35 35 36 33 37 34 38 24 39
REMARK H PARENT 19 7 24 40
REMARK Flexibility Score: inf
ROOT
ATOM      1  C   UNL     1       3.269   0.706   2.794  1.00  0.00     0.262 C 
ATOM      2  C   UNL     1       4.391   0.793   3.832  1.00  0.00     0.069 C 
ATOM      3  C   UNL     1       5.742   0.841   3.113  1.00  0.00     0.041 C 
ATOM      4  C   UNL     1       5.761   2.038   2.159  1.00  0.00     0.069 C 
ATOM      5  C   UNL     1       4.600   1.915   1.169  1.00  0.00     0.262 C 
ATOM      6  N   UNL     1       3.328   1.899   1.922  1.00  0.00    -0.334 N 
ATOM      7  H   UNL     1       3.277   2.743   2.509  1.00  0.00     0.348 HD
ENDROOT
BRANCH   6   8
ATOM      8  C   UNL     1       2.186   1.895   0.984  1.00  0.00     0.278 C 
BRANCH   8   9
ATOM      9  C   UNL     1       0.887   1.759   1.781  1.00  0.00     0.161 C 
ATOM     10  C   UNL     1      -2.821   1.109  -0.228  1.00  0.00     0.012 C 
ATOM     11  C   UNL     1      -2.304   2.440  -0.777  1.00  0.00    -0.023 C 
ATOM     12  C   UNL     1      -0.977   2.212  -1.506  1.00  0.00     0.030 C 
ATOM     13  C   UNL     1      -2.104   3.434   0.382  1.00  0.00     0.052 C 
ATOM     14  C   UNL     1      -3.334   3.037  -1.738  1.00  0.00     0.007 C 
ATOM     15  C   UNL     1      -1.211   1.386  -2.774  1.00  0.00     0.095 C 
ATOM     16  C   UNL     1      -0.004   1.431  -0.604  1.00  0.00     0.015 C 
ATOM     17  C   UNL     1      -0.682   3.288   0.885  1.00  0.00     0.181 C 
ATOM     18  C   UNL     1      -3.604   2.072  -2.892  1.00  0.00     0.004 C 
ATOM     19  C   UNL     1      -2.316   1.895  -3.704  1.00  0.00     0.038 C 
ATOM     20  O   UNL     1      -0.079   0.745  -3.364  1.00  0.00    -0.369 OA
ATOM     21  C   UNL     1      -0.992  -0.124  -2.691  1.00  0.00     0.196 C 
ATOM     22  C   UNL     1      -0.327   1.767   0.840  1.00  0.00     0.050 C 
ATOM     23  O   UNL     1      -0.470   3.619   2.281  1.00  0.00    -0.462 OA
ATOM     24  C   UNL     1       0.668   2.983   2.661  1.00  0.00     0.315 C 
ATOM     25  O   UNL     1       1.405   3.354   3.543  1.00  0.00    -0.252 OA
ENDBRANCH   8   9
ENDBRANCH   6   8
BRANCH   3  26
ATOM     26  C   UNL     1       6.864   0.990   4.143  1.00  0.00     0.118 C 
BRANCH  26  27
ATOM     27  C   UNL     1       6.843  -0.189   5.082  1.00  0.00    -0.012 A 
ATOM     28  C   UNL     1       7.273  -0.040   6.387  1.00  0.00     0.007 A 
ATOM     29  C   UNL     1       6.390  -1.417   4.639  1.00  0.00     0.007 A 
ATOM     30  C   UNL     1       7.254  -1.121   7.248  1.00  0.00     0.000 A 
ATOM     31  C   UNL     1       6.377  -2.500   5.498  1.00  0.00     0.000 A 
ATOM     32  C   UNL     1       6.806  -2.351   6.804  1.00  0.00     0.000 A 
ENDBRANCH  26  27
BRANCH  26  33
ATOM     33  C   UNL     1       8.192   1.045   3.434  1.00  0.00    -0.012 A 
ATOM     34  C   UNL     1       9.240   1.760   3.984  1.00  0.00     0.007 A 
ATOM     35  C   UNL     1       8.365   0.376   2.237  1.00  0.00     0.007 A 
ATOM     36  C   UNL     1      10.459   1.810   3.334  1.00  0.00     0.000 A 
ATOM     37  C   UNL     1       9.582   0.431   1.584  1.00  0.00     0.000 A 
ATOM     38  C   UNL     1      10.630   1.145   2.134  1.00  0.00     0.000 A 
ENDBRANCH  26  33
BRANCH  26  39
ATOM     39  O   UNL     1       6.670   2.195   4.887  1.00  0.00    -0.380 OA
ATOM     40  H   UNL     1       5.798   2.160   5.353  1.00  0.00     0.212 HD
ENDBRANCH  26  39
ENDBRANCH   3  26
TORSDOF 6
