REMARK SMILES COc1cc2c(cc1OC)CN(c1nc(SC)ncc1C[NH2+][C@H]1CCC[C@@H](C)[C@@H]1C)CC2
REMARK SMILES IDX 20 1 19 2 18 3 15 4 14 5 13 6 21 7 22 8 23 11 28 12 27 13
REMARK SMILES IDX 29 14 26 15 30 16 25 17 24 18 12 19 11 20 31 21 6 22 32 23
REMARK SMILES IDX 5 24 7 25 4 26 8 27 3 28 9 29 10 30 2 31 1 32 16 33 17 34
REMARK H PARENT 22 9 22 10
REMARK Flexibility Score: inf
ROOT
ATOM      1  C   UNL     1       1.291   1.129   2.538  1.00  0.00     0.067 A 
ATOM      2  C   UNL     1       1.855   0.470   3.612  1.00  0.00     0.127 A 
ATOM      3  N   UNL     1       1.066  -0.117   4.500  1.00  0.00    -0.230 NA
ATOM      4  C   UNL     1      -0.253  -0.075   4.372  1.00  0.00     0.189 A 
ATOM      5  N   UNL     1      -0.833   0.551   3.359  1.00  0.00    -0.205 NA
ATOM      6  C   UNL     1      -0.102   1.161   2.432  1.00  0.00     0.142 A 
ENDROOT
BRANCH   1   7
ATOM      7  C   UNL     1       2.157   1.802   1.505  1.00  0.00     0.303 C 
BRANCH   7   8
ATOM      8  N   UNL     1       2.172   3.251   1.748  1.00  0.00    -0.340 N 
ATOM      9  H   UNL     1       2.542   3.433   2.692  1.00  0.00     0.346 HD
ATOM     10  H   UNL     1       1.210   3.614   1.692  1.00  0.00     0.346 HD
BRANCH   8  11
ATOM     11  C   UNL     1       3.009   3.942   0.758  1.00  0.00     0.185 C 
ATOM     12  C   UNL     1       4.887   7.300   0.907  1.00  0.00     0.008 C 
ATOM     13  C   UNL     1       4.384   5.981   0.317  1.00  0.00    -0.006 C 
ATOM     14  C   UNL     1       3.512   5.261   1.348  1.00  0.00     0.047 C 
ATOM     15  C   UNL     1       3.559   6.266  -0.939  1.00  0.00     0.004 C 
ATOM     16  C   UNL     1       4.338   4.976   2.604  1.00  0.00     0.014 C 
ATOM     17  C   UNL     1       3.055   4.947  -1.529  1.00  0.00     0.006 C 
ATOM     18  C   UNL     1       2.183   4.227  -0.498  1.00  0.00     0.065 C 
ENDBRANCH   8  11
ENDBRANCH   7   8
ENDBRANCH   1   7
BRANCH   6  19
ATOM     19  N   UNL     1      -0.711   1.814   1.373  1.00  0.00    -0.351 N 
ATOM     20  C   UNL     1      -1.424   0.866   0.511  1.00  0.00     0.154 C 
ATOM     21  C   UNL     1      -1.631   2.855   1.857  1.00  0.00     0.123 C 
ATOM     22  C   UNL     1      -2.164   1.598  -0.578  1.00  0.00    -0.021 A 
ATOM     23  C   UNL     1      -1.984   3.772   0.685  1.00  0.00     0.057 C 
ATOM     24  C   UNL     1      -2.429   2.948  -0.497  1.00  0.00    -0.037 A 
ATOM     25  C   UNL     1      -2.583   0.877  -1.688  1.00  0.00     0.056 A 
ATOM     26  C   UNL     1      -3.119   3.582  -1.520  1.00  0.00     0.054 A 
ATOM     27  C   UNL     1      -3.268   1.505  -2.713  1.00  0.00     0.161 A 
ATOM     28  C   UNL     1      -3.539   2.868  -2.628  1.00  0.00     0.161 A 
BRANCH  27  29
ATOM     29  O   UNL     1      -3.675   0.794  -3.798  1.00  0.00    -0.493 OA
ATOM     30  C   UNL     1      -3.360  -0.600  -3.816  1.00  0.00     0.278 C 
ENDBRANCH  27  29
BRANCH  28  31
ATOM     31  O   UNL     1      -4.214   3.494  -3.629  1.00  0.00    -0.493 OA
ATOM     32  C   UNL     1      -4.455   4.893  -3.472  1.00  0.00     0.278 C 
ENDBRANCH  28  31
ENDBRANCH   6  19
BRANCH   4  33
ATOM     33  S   UNL     1      -1.259  -0.871   5.580  1.00  0.00    -0.090 SA
ATOM     34  C   UNL     1       0.025  -1.528   6.675  1.00  0.00     0.094 C 
ENDBRANCH   4  33
TORSDOF 7
