REMARK SMILES CO[C@H]1[C@H](NC(=O)c2ccco2)c2ccccc2C12CC[NH+](Cc1c[nH]nc1C1CCCCC1)CC2
REMARK SMILES IDX 3 1 4 2 13 3 14 4 15 5 16 6 17 7 18 8 19 9 20 10 21 11 22 12
REMARK SMILES IDX 35 13 36 14 2 16 1 17 5 18 6 19 7 21 8 22 12 23 9 24 11 25
REMARK SMILES IDX 10 26 23 27 24 28 28 29 25 30 27 31 26 32 29 34 34 35 30 36
REMARK SMILES IDX 33 37 31 38 32 39
REMARK H PARENT 22 15 5 20 26 33
REMARK Flexibility Score: inf
ROOT
ATOM      1  C   UNL     1       1.679   5.500   0.449  1.00  0.00     0.155 C 
ATOM      2  C   UNL     1       2.303   4.160   0.001  1.00  0.00     0.143 C 
ATOM      3  C   UNL     1       1.160   3.168   0.007  1.00  0.00    -0.019 A 
ATOM      4  C   UNL     1       1.173   1.784   0.000  1.00  0.00     0.006 A 
ATOM      5  C   UNL     1      -0.013   1.076   0.008  1.00  0.00     0.000 A 
ATOM      6  C   UNL     1      -1.219   1.752   0.017  1.00  0.00     0.000 A 
ATOM      7  C   UNL     1      -1.235   3.132   0.029  1.00  0.00     0.005 A 
ATOM      8  C   UNL     1      -0.047   3.845   0.022  1.00  0.00    -0.033 A 
ATOM      9  C   UNL     1       0.208   5.333   0.028  1.00  0.00     0.035 C 
ATOM     10  C   UNL     1      -0.004   5.915  -1.367  1.00  0.00     0.076 C 
ATOM     11  C   UNL     1       0.237   7.427  -1.326  1.00  0.00     0.263 C 
ATOM     12  N   UNL     1      -0.681   8.042  -0.359  1.00  0.00    -0.331 N 
ATOM     13  C   UNL     1      -0.443   7.535   0.999  1.00  0.00     0.263 C 
ATOM     14  C   UNL     1      -0.706   6.027   1.034  1.00  0.00     0.076 C 
ATOM     15  H   UNL     1      -1.641   7.780  -0.627  1.00  0.00     0.348 HD
ENDROOT
BRANCH   1  16
ATOM     16  O   UNL     1       1.787   5.663   1.865  1.00  0.00    -0.378 OA
ATOM     17  C   UNL     1       2.970   6.348   2.283  1.00  0.00     0.195 C 
ENDBRANCH   1  16
BRANCH   2  18
ATOM     18  N   UNL     1       2.860   4.285  -1.348  1.00  0.00    -0.340 N 
ATOM     19  C   UNL     1       3.817   3.433  -1.764  1.00  0.00     0.287 C 
ATOM     20  H   UNL     1       2.520   5.025  -1.979  1.00  0.00     0.164 HD
ATOM     21  O   UNL     1       4.219   2.559  -1.018  1.00  0.00    -0.266 OA
BRANCH  19  22
ATOM     22  C   UNL     1       4.375   3.558  -3.115  1.00  0.00     0.191 A 
ATOM     23  O   UNL     1       4.021   4.477  -4.036  1.00  0.00    -0.459 OA
ATOM     24  C   UNL     1       5.348   2.768  -3.658  1.00  0.00     0.056 A 
ATOM     25  C   UNL     1       4.739   4.289  -5.151  1.00  0.00     0.196 A 
ATOM     26  C   UNL     1       5.570   3.240  -4.961  1.00  0.00     0.043 A 
ENDBRANCH  19  22
ENDBRANCH   2  18
BRANCH  12  27
ATOM     27  C   UNL     1      -0.583   9.507  -0.398  1.00  0.00     0.302 C 
BRANCH  27  28
ATOM     28  C   UNL     1      -0.588   9.973  -1.831  1.00  0.00     0.047 A 
ATOM     29  C   UNL     1      -1.715  10.115  -2.647  1.00  0.00     0.074 A 
ATOM     30  C   UNL     1       0.498  10.332  -2.555  1.00  0.00     0.115 A 
ATOM     31  N   UNL     1      -1.320  10.540  -3.820  1.00  0.00    -0.180 NA
ATOM     32  N   UNL     1       0.073  10.681  -3.788  1.00  0.00    -0.285 N 
ATOM     33  H   UNL     1       0.669  10.995  -4.567  1.00  0.00     0.189 HD
BRANCH  29  34
ATOM     34  C   UNL     1      -3.139   9.830  -2.244  1.00  0.00     0.040 C 
ATOM     35  C   UNL     1      -3.973  11.105  -2.382  1.00  0.00     0.010 C 
ATOM     36  C   UNL     1      -3.717   8.742  -3.150  1.00  0.00     0.010 C 
ATOM     37  C   UNL     1      -5.419  10.816  -1.973  1.00  0.00     0.001 C 
ATOM     38  C   UNL     1      -5.163   8.452  -2.741  1.00  0.00     0.001 C 
ATOM     39  C   UNL     1      -5.997   9.727  -2.880  1.00  0.00     0.000 C 
ENDBRANCH  29  34
ENDBRANCH  27  28
ENDBRANCH  12  27
TORSDOF 6
