REMARK SMILES COc1ccc(CNC(=O)c2c([O-])[n-]c3c(Br)cc(Br)cc3c2=O)cc1
REMARK SMILES IDX 7 1 6 2 3 3 26 4 4 5 25 6 5 7 2 8 1 9 8 10 9 11 10 13 11 14
REMARK SMILES IDX 12 15 23 16 14 17 13 18 22 19 24 20 15 21 21 22 16 23 19 24
REMARK SMILES IDX 18 25 17 26 20 27
REMARK H PARENT 8 12
REMARK Flexibility Score: inf
ROOT
ATOM      1  C   UNL     1      -2.361   9.606   0.085  1.00  0.00     0.152 C 
ENDROOT
BRANCH   1   2
ATOM      2  C   UNL     1      -3.766  10.124   0.253  1.00  0.00    -0.029 A 
ATOM      3  C   UNL     1      -6.345  11.076   0.563  1.00  0.00     0.118 A 
ATOM      4  C   UNL     1      -5.869  10.758  -0.701  1.00  0.00     0.047 A 
ATOM      5  C   UNL     1      -5.526  10.915   1.671  1.00  0.00     0.047 A 
ATOM      6  C   UNL     1      -4.578  10.289  -0.853  1.00  0.00     0.009 A 
ATOM      7  C   UNL     1      -4.239  10.440   1.514  1.00  0.00     0.009 A 
BRANCH   3   8
ATOM      8  O   UNL     1      -7.612  11.543   0.715  1.00  0.00    -0.497 OA
ATOM      9  C   UNL     1      -8.399  11.682  -0.470  1.00  0.00     0.278 C 
ENDBRANCH   3   8
ENDBRANCH   1   2
BRANCH   1  10
ATOM     10  N   UNL     1      -2.365   8.144   0.182  1.00  0.00    -0.348 N 
ATOM     11  C   UNL     1      -1.211   7.458   0.061  1.00  0.00     0.253 C 
ATOM     12  H   UNL     1      -3.249   7.641   0.343  1.00  0.00     0.164 HD
ATOM     13  O   UNL     1      -0.155   8.055  -0.032  1.00  0.00    -0.269 OA
BRANCH  11  14
ATOM     14  C   UNL     1      -1.229   5.990   0.041  1.00  0.00     0.057 A 
ATOM     15  C   UNL     1      -2.498   5.264   0.006  1.00  0.00    -0.215 A 
ATOM     16  C   UNL     1      -0.034   5.267   0.056  1.00  0.00     0.194 A 
ATOM     17  N   UNL     1      -2.524   3.921  -0.012  1.00  0.00    -0.669 NA
ATOM     18  O   UNL     1      -3.546   5.885  -0.007  1.00  0.00    -0.888 OA
ATOM     19  C   UNL     1      -0.108   3.802   0.034  1.00  0.00     0.010 A 
ATOM     20  O   UNL     1       1.157   5.899   0.087  1.00  0.00    -0.289 OA
ATOM     21  C   UNL     1      -1.364   3.172   0.001  1.00  0.00    -0.111 A 
ATOM     22  C   UNL     1       1.060   3.031   0.047  1.00  0.00     0.026 A 
ATOM     23  C   UNL     1      -1.429   1.780  -0.026  1.00  0.00     0.005 A 
ATOM     24  C   UNL     1       0.971   1.657   0.026  1.00  0.00     0.019 A 
ATOM     25  C   UNL     1      -0.270   1.035  -0.008  1.00  0.00     0.030 A 
ATOM     26  Br  UNL     1      -3.109   0.914  -0.079  1.00  0.00    -0.052 Br
ATOM     27  Br  UNL     1       2.547   0.612   0.043  1.00  0.00    -0.051 Br
ENDBRANCH  11  14
ENDBRANCH   1  10
TORSDOF 4
