REMARK SMILES Cc1nn(C(=O)c2ccccc2O)c2c1[C@H](c1ccc(O)cc1O)SC(N)=N2
REMARK SMILES IDX 1 1 2 2 15 3 14 4 4 5 3 6 28 7 26 8 25 9 16 10 27 11 5 14
REMARK SMILES IDX 6 15 7 16 12 17 8 18 11 19 9 20 10 21 13 22 17 24 23 25
REMARK SMILES IDX 18 26 22 27 19 28 20 29 24 30 21 32
REMARK H PARENT 27 12 27 13 13 23 24 31 21 33
REMARK Flexibility Score: inf
ROOT
ATOM      1  C   UNL     1       2.345   6.075   2.006  1.00  0.00     0.069 C 
ATOM      2  C   UNL     1       2.978   4.710   2.098  1.00  0.00     0.067 A 
ATOM      3  C   UNL     1       2.963   3.742   1.103  1.00  0.00     0.038 A 
ATOM      4  C   UNL     1       3.651   2.637   1.570  1.00  0.00     0.167 A 
ATOM      5  N   UNL     1       4.071   2.939   2.836  1.00  0.00    -0.177 N 
ATOM      6  N   UNL     1       3.635   4.239   3.130  1.00  0.00    -0.168 NA
ATOM      7  N   UNL     1       3.847   1.497   0.866  1.00  0.00    -0.205 NA
ATOM      8  C   UNL     1       3.727   1.448  -0.435  1.00  0.00     0.161 C 
ATOM      9  S   UNL     1       3.381   2.873  -1.411  1.00  0.00    -0.075 SA
ATOM     10  C   UNL     1       2.331   3.807  -0.266  1.00  0.00     0.124 C 
ATOM     11  N   UNL     1       3.875   0.238  -1.065  1.00  0.00    -0.378 N 
ATOM     12  H   UNL     1       4.077  -0.618  -0.528  1.00  0.00     0.158 HD
ATOM     13  H   UNL     1       3.782   0.187  -2.090  1.00  0.00     0.158 HD
ENDROOT
BRANCH   5  14
ATOM     14  C   UNL     1       4.777   2.133   3.653  1.00  0.00     0.283 C 
ATOM     15  O   UNL     1       5.021   0.991   3.318  1.00  0.00    -0.266 OA
BRANCH  14  16
ATOM     16  C   UNL     1       5.253   2.637   4.954  1.00  0.00     0.084 A 
ATOM     17  C   UNL     1       6.095   1.848   5.750  1.00  0.00     0.128 A 
ATOM     18  C   UNL     1       4.872   3.906   5.398  1.00  0.00     0.018 A 
ATOM     19  C   UNL     1       6.537   2.333   6.972  1.00  0.00     0.047 A 
ATOM     20  C   UNL     1       5.316   4.369   6.617  1.00  0.00     0.001 A 
ATOM     21  C   UNL     1       6.148   3.586   7.402  1.00  0.00     0.004 A 
BRANCH  17  22
ATOM     22  O   UNL     1       6.477   0.617   5.327  1.00  0.00    -0.507 OA
ATOM     23  H   UNL     1       6.902   0.772   4.446  1.00  0.00     0.293 HD
ENDBRANCH  17  22
ENDBRANCH  14  16
ENDBRANCH   5  14
BRANCH  10  24
ATOM     24  C   UNL     1       0.954   3.196  -0.222  1.00  0.00     0.012 A 
ATOM     25  C   UNL     1      -0.139   3.974   0.130  1.00  0.00     0.123 A 
ATOM     26  C   UNL     1       0.782   1.860  -0.532  1.00  0.00     0.013 A 
ATOM     27  C   UNL     1      -1.405   3.410   0.170  1.00  0.00     0.092 A 
ATOM     28  C   UNL     1      -0.478   1.296  -0.493  1.00  0.00     0.047 A 
ATOM     29  C   UNL     1      -1.575   2.069  -0.137  1.00  0.00     0.119 A 
BRANCH  25  30
ATOM     30  O   UNL     1       0.031   5.287   0.435  1.00  0.00    -0.507 OA
ATOM     31  H   UNL     1       0.475   5.678  -0.359  1.00  0.00     0.293 HD
ENDBRANCH  25  30
BRANCH  29  32
ATOM     32  O   UNL     1      -2.814   1.513  -0.092  1.00  0.00    -0.508 OA
ATOM     33  H   UNL     1      -2.728   0.750   0.533  1.00  0.00     0.293 HD
ENDBRANCH  29  32
ENDBRANCH  10  24
TORSDOF 6
