REMARK SMILES Cc1c(C)c(OC(=O)c2ccccc2O)c(CC(=O)c2ccccc2)c(C)c1O
REMARK SMILES IDX 1 1 2 2 3 3 5 4 16 5 26 6 28 7 27 8 4 9 29 10 6 12 7 13 8 14
REMARK SMILES IDX 9 15 14 16 10 17 13 18 11 19 12 20 15 21 17 23 18 24 19 25
REMARK SMILES IDX 20 26 25 27 21 28 24 29 22 30 23 31
REMARK H PARENT 29 11 15 22
REMARK Flexibility Score: inf
ROOT
ATOM      1  C   UNL     1       4.710  -0.345   2.462  1.00  0.00     0.049 C 
ATOM      2  C   UNL     1       4.060   0.063   1.165  1.00  0.00    -0.002 A 
ATOM      3  C   UNL     1       2.895   0.804   1.180  1.00  0.00    -0.001 A 
ATOM      4  C   UNL     1       2.293   1.176  -0.013  1.00  0.00     0.138 A 
ATOM      5  C   UNL     1       2.869   0.812  -1.223  1.00  0.00     0.010 A 
ATOM      6  C   UNL     1       4.037   0.076  -1.238  1.00  0.00    -0.002 A 
ATOM      7  C   UNL     1       4.635  -0.300  -0.044  1.00  0.00     0.122 A 
ATOM      8  C   UNL     1       4.662  -0.318  -2.551  1.00  0.00     0.049 C 
ATOM      9  C   UNL     1       2.273   1.204   2.493  1.00  0.00     0.049 C 
ENDROOT
BRANCH   7  10
ATOM     10  O   UNL     1       5.785  -1.026  -0.059  1.00  0.00    -0.507 OA
ATOM     11  H   UNL     1       5.581  -1.838   0.469  1.00  0.00     0.293 HD
ENDBRANCH   7  10
BRANCH   4  12
ATOM     12  O   UNL     1       1.143   1.901   0.001  1.00  0.00    -0.422 OA
BRANCH  12  13
ATOM     13  C   UNL     1      -0.014   1.211   0.009  1.00  0.00     0.347 C 
ATOM     14  O   UNL     1       0.002  -0.004   0.002  1.00  0.00    -0.246 OA
BRANCH  13  15
ATOM     15  C   UNL     1      -1.301   1.931   0.019  1.00  0.00     0.102 A 
ATOM     16  C   UNL     1      -2.508   1.217   0.021  1.00  0.00     0.130 A 
ATOM     17  C   UNL     1      -1.325   3.328   0.032  1.00  0.00     0.019 A 
ATOM     18  C   UNL     1      -3.712   1.905   0.030  1.00  0.00     0.047 A 
ATOM     19  C   UNL     1      -2.530   3.994   0.036  1.00  0.00     0.001 A 
ATOM     20  C   UNL     1      -3.721   3.286   0.037  1.00  0.00     0.004 A 
BRANCH  16  21
ATOM     21  O   UNL     1      -2.498  -0.139   0.014  1.00  0.00    -0.507 OA
ATOM     22  H   UNL     1      -1.960  -0.393   0.806  1.00  0.00     0.293 HD
ENDBRANCH  16  21
ENDBRANCH  13  15
ENDBRANCH  12  13
ENDBRANCH   4  12
BRANCH   5  23
ATOM     23  C   UNL     1       2.219   1.221  -2.519  1.00  0.00     0.121 C 
BRANCH  23  24
ATOM     24  C   UNL     1       2.759   2.559  -2.953  1.00  0.00     0.167 C 
ATOM     25  O   UNL     1       3.590   3.125  -2.275  1.00  0.00    -0.294 OA
BRANCH  24  26
ATOM     26  C   UNL     1       2.278   3.179  -4.198  1.00  0.00     0.018 A 
ATOM     27  C   UNL     1       2.778   4.420  -4.603  1.00  0.00     0.012 A 
ATOM     28  C   UNL     1       1.324   2.526  -4.985  1.00  0.00     0.012 A 
ATOM     29  C   UNL     1       2.322   4.994  -5.772  1.00  0.00     0.001 A 
ATOM     30  C   UNL     1       0.875   3.116  -6.147  1.00  0.00     0.001 A 
ATOM     31  C   UNL     1       1.374   4.345  -6.542  1.00  0.00     0.000 A 
ENDBRANCH  24  26
ENDBRANCH  23  24
ENDBRANCH   5  23
TORSDOF 8
