REMARK SMILES COC(=O)[C@@H]1Cc2c([nH]c3ccccc23)[C@H]2C[C@@H]([NH2+]CCc3c[nH]cn3)C[C@@H](c3ccc(C(C)C)cc3)N21
REMARK SMILES IDX 19 1 18 4 28 5 27 6 38 7 16 8 5 9 17 10 8 11 6 12 7 13 9 14
REMARK SMILES IDX 15 15 10 16 14 18 11 19 13 20 12 21 29 22 32 23 36 24 31 25
REMARK SMILES IDX 37 26 30 27 33 28 34 29 35 30 3 31 4 32 2 33 1 34 20 35
REMARK SMILES IDX 21 36 22 37 26 38 23 39 25 40 24 41
REMARK H PARENT 19 2 19 3 9 17 24 42
REMARK Flexibility Score: inf
ROOT
ATOM      1  N   UNL     1      -0.201   5.010  -2.607  1.00  0.00    -0.343 N 
ATOM      2  H   UNL     1       0.397   5.841  -2.712  1.00  0.00     0.346 HD
ATOM      3  H   UNL     1      -0.044   4.378  -3.405  1.00  0.00     0.346 HD
ENDROOT
BRANCH   1   4
ATOM      4  C   UNL     1       0.146   4.313  -1.354  1.00  0.00     0.186 C 
ATOM      5  C   UNL     1       0.212   2.094  -0.205  1.00  0.00     0.094 C 
ATOM      6  C   UNL     1      -0.224   2.832  -1.473  1.00  0.00     0.089 C 
ATOM      7  N   UNL     1       1.676   2.240  -0.062  1.00  0.00    -0.274 NA
ATOM      8  C   UNL     1       2.020   3.662   0.156  1.00  0.00     0.111 C 
ATOM      9  C   UNL     1       2.169   1.412   1.065  1.00  0.00     0.173 C 
ATOM     10  C   UNL     1       1.653   4.442  -1.108  1.00  0.00     0.090 C 
ATOM     11  C   UNL     1       3.504   3.755   0.404  1.00  0.00     0.037 A 
ATOM     12  C   UNL     1       3.696   1.302   0.957  1.00  0.00     0.069 C 
ATOM     13  C   UNL     1       4.256   2.689   0.766  1.00  0.00    -0.016 A 
ATOM     14  N   UNL     1       4.295   4.868   0.311  1.00  0.00    -0.357 N 
ATOM     15  C   UNL     1       5.616   3.157   0.916  1.00  0.00     0.003 A 
ATOM     16  C   UNL     1       5.586   4.545   0.616  1.00  0.00     0.046 A 
ATOM     17  H   UNL     1       3.965   5.808   0.050  1.00  0.00     0.166 HD
ATOM     18  C   UNL     1       6.808   2.518   1.269  1.00  0.00     0.010 A 
ATOM     19  C   UNL     1       6.751   5.306   0.668  1.00  0.00     0.026 A 
ATOM     20  C   UNL     1       7.940   3.294   1.313  1.00  0.00     0.001 A 
ATOM     21  C   UNL     1       7.916   4.647   1.023  1.00  0.00     0.002 A 
BRANCH   5  22
ATOM     22  C   UNL     1      -0.126   0.631  -0.333  1.00  0.00    -0.031 A 
ATOM     23  C   UNL     1      -0.746  -2.053  -0.569  1.00  0.00    -0.045 A 
ATOM     24  C   UNL     1       0.384  -1.548  -1.185  1.00  0.00     0.004 A 
ATOM     25  C   UNL     1      -1.567  -1.216   0.164  1.00  0.00     0.004 A 
ATOM     26  C   UNL     1       0.692  -0.205  -1.070  1.00  0.00     0.005 A 
ATOM     27  C   UNL     1      -1.256   0.126   0.281  1.00  0.00     0.005 A 
BRANCH  23  28
ATOM     28  C   UNL     1      -1.084  -3.516  -0.697  1.00  0.00     0.013 C 
ATOM     29  C   UNL     1      -1.279  -3.867  -2.174  1.00  0.00     0.012 C 
ATOM     30  C   UNL     1       0.058  -4.356  -0.119  1.00  0.00     0.012 C 
ENDBRANCH  23  28
ENDBRANCH   5  22
BRANCH   9  31
ATOM     31  C   UNL     1       1.802   2.036   2.387  1.00  0.00     0.323 C 
ATOM     32  O   UNL     1       1.018   2.955   2.425  1.00  0.00    -0.250 OA
BRANCH  31  33
ATOM     33  O   UNL     1       2.347   1.572   3.523  1.00  0.00    -0.468 OA
ATOM     34  C   UNL     1       1.948   2.221   4.759  1.00  0.00     0.282 C 
ENDBRANCH  31  33
ENDBRANCH   9  31
ENDBRANCH   1   4
BRANCH   1  35
ATOM     35  C   UNL     1      -1.616   5.426  -2.586  1.00  0.00     0.267 C 
BRANCH  35  36
ATOM     36  C   UNL     1      -1.947   6.145  -3.895  1.00  0.00     0.119 C 
BRANCH  36  37
ATOM     37  C   UNL     1      -3.391   6.574  -3.882  1.00  0.00     0.064 A 
ATOM     38  N   UNL     1      -4.449   5.776  -3.674  1.00  0.00    -0.242 NA
ATOM     39  C   UNL     1      -3.846   7.827  -4.071  1.00  0.00     0.107 A 
ATOM     40  C   UNL     1      -5.542   6.486  -3.732  1.00  0.00     0.196 A 
ATOM     41  N   UNL     1      -5.211   7.771  -3.982  1.00  0.00    -0.351 N 
ATOM     42  H   UNL     1      -5.864   8.561  -4.086  1.00  0.00     0.167 HD
ENDBRANCH  36  37
ENDBRANCH  35  36
ENDBRANCH   1  35
TORSDOF 8
