REMARK SMILES Nc1c2c3c(sc2n(Cc2cc(Cl)cc(Cl)c2)c(=O)[n+]1Cc1ccccc1)CCCC3
REMARK SMILES IDX 20 1 2 2 3 3 4 4 5 5 6 6 7 7 8 8 18 9 19 10 28 11 29 12
REMARK SMILES IDX 30 13 31 14 21 15 22 16 25 17 26 18 24 19 27 20 23 21 1 22
REMARK SMILES IDX 9 25 10 26 11 27 17 28 12 29 15 30 14 31 13 32 16 33
REMARK H PARENT 1 23 1 24
REMARK Flexibility Score: inf
ROOT
ATOM      1  N   UNL     1       4.014   3.838  -3.288  1.00  0.00    -0.192 N 
ATOM      2  C   UNL     1       4.815   2.978  -4.013  1.00  0.00     0.234 A 
ATOM      3  C   UNL     1       5.294   1.728  -3.366  1.00  0.00     0.101 A 
ATOM      4  C   UNL     1       6.143   0.680  -3.933  1.00  0.00    -0.016 A 
ATOM      5  C   UNL     1       6.438  -0.367  -3.134  1.00  0.00     0.012 A 
ATOM      6  S   UNL     1       5.614  -0.017  -1.605  1.00  0.00    -0.106 S 
ATOM      7  C   UNL     1       4.882   1.538  -2.050  1.00  0.00     0.171 A 
ATOM      8  N   UNL     1       4.080   2.441  -1.404  1.00  0.00    -0.210 N 
ATOM      9  C   UNL     1       3.664   3.564  -2.019  1.00  0.00     0.444 A 
ATOM     10  O   UNL     1       2.957   4.348  -1.415  1.00  0.00    -0.212 OA
ATOM     11  C   UNL     1       7.279  -1.559  -3.473  1.00  0.00     0.047 C 
ATOM     12  C   UNL     1       7.464  -1.604  -4.997  1.00  0.00     0.006 C 
ATOM     13  C   UNL     1       7.867  -0.209  -5.485  1.00  0.00     0.005 C 
ATOM     14  C   UNL     1       6.681   0.748  -5.360  1.00  0.00     0.038 C 
ENDROOT
BRANCH   1  15
ATOM     15  C   UNL     1       3.536   5.073  -3.914  1.00  0.00     0.245 C 
BRANCH  15  16
ATOM     16  C   UNL     1       4.527   6.180  -3.662  1.00  0.00    -0.014 A 
ATOM     17  C   UNL     1       6.345   8.211  -3.200  1.00  0.00     0.000 A 
ATOM     18  C   UNL     1       5.313   7.991  -2.307  1.00  0.00     0.000 A 
ATOM     19  C   UNL     1       6.468   7.416  -4.324  1.00  0.00     0.000 A 
ATOM     20  C   UNL     1       4.401   6.979  -2.541  1.00  0.00     0.007 A 
ATOM     21  C   UNL     1       5.559   6.400  -4.555  1.00  0.00     0.007 A 
ENDBRANCH  15  16
ENDBRANCH   1  15
BRANCH   2  22
ATOM     22  N   UNL     1       5.146   3.258  -5.246  1.00  0.00    -0.318 N 
ATOM     23  H   UNL     1       4.806   4.129  -5.678  1.00  0.00     0.253 HD
ATOM     24  H   UNL     1       5.744   2.614  -5.783  1.00  0.00     0.253 HD
ENDBRANCH   2  22
BRANCH   8  25
ATOM     25  C   UNL     1       3.673   2.184  -0.021  1.00  0.00     0.243 C 
BRANCH  25  26
ATOM     26  C   UNL     1       2.378   1.412  -0.013  1.00  0.00    -0.011 A 
ATOM     27  C   UNL     1       2.398   0.030  -0.021  1.00  0.00     0.027 A 
ATOM     28  C   UNL     1       1.172   2.087   0.002  1.00  0.00     0.027 A 
ATOM     29  C   UNL     1       1.210  -0.679  -0.013  1.00  0.00     0.042 A 
ATOM     30  C   UNL     1      -0.017   1.379   0.010  1.00  0.00     0.042 A 
ATOM     31  C   UNL     1       0.002  -0.004   0.002  1.00  0.00     0.041 A 
ATOM     32  Cl  UNL     1       1.234  -2.415  -0.022  1.00  0.00    -0.084 Cl
ATOM     33  Cl  UNL     1      -1.532   2.227   0.021  1.00  0.00    -0.084 Cl
ENDBRANCH  25  26
ENDBRANCH   8  25
TORSDOF 5
