REMARK SMILES CCSc1nc(N2CCCCC2)c2cnn(CCNC(=O)C3c4ccccc4Oc4ccccc43)c2n1
REMARK SMILES IDX 17 1 16 2 4 3 5 4 37 5 6 6 36 7 13 8 14 9 15 10 3 11 2 12
REMARK SMILES IDX 1 13 7 14 12 15 8 16 11 17 9 18 10 19 18 20 19 21 20 22
REMARK SMILES IDX 21 24 22 25 35 26 23 27 30 28 34 29 28 30 24 31 29 32 31 33
REMARK SMILES IDX 33 34 27 35 25 36 32 37 26 38
REMARK H PARENT 19 23
REMARK Flexibility Score: inf
ROOT
ATOM      1  C   UNL     1       1.750   3.200   0.003  1.00  0.00     0.168 C 
ENDROOT
BRANCH   1   2
ATOM      2  N   UNL     1       1.284   1.811  -0.001  1.00  0.00    -0.245 N 
ATOM      3  C   UNL     1      -2.322   1.346   0.032  1.00  0.00     0.191 A 
ATOM      4  N   UNL     1      -2.350   0.018   0.025  1.00  0.00    -0.204 NA
ATOM      5  N   UNL     1      -1.191   2.032   0.029  1.00  0.00    -0.203 NA
ATOM      6  C   UNL     1      -1.228  -0.691   0.010  1.00  0.00     0.144 A 
ATOM      7  C   UNL     1      -0.017   1.404   0.010  1.00  0.00     0.164 A 
ATOM      8  C   UNL     1       0.002  -0.004   0.002  1.00  0.00     0.082 A 
ATOM      9  C   UNL     1       1.357  -0.399  -0.013  1.00  0.00     0.149 A 
ATOM     10  N   UNL     1       2.099   0.672  -0.014  1.00  0.00    -0.179 NA
BRANCH   3  11
ATOM     11  S   UNL     1      -3.849   2.227   0.051  1.00  0.00    -0.086 SA
BRANCH  11  12
ATOM     12  C   UNL     1      -3.230   3.928   0.054  1.00  0.00     0.075 C 
ATOM     13  C   UNL     1      -4.412   4.900   0.071  1.00  0.00     0.016 C 
ENDBRANCH  11  12
ENDBRANCH   3  11
BRANCH   6  14
ATOM     14  N   UNL     1      -1.266  -2.072   0.003  1.00  0.00    -0.356 N 
ATOM     15  C   UNL     1      -2.651  -2.560   0.013  1.00  0.00     0.118 C 
ATOM     16  C   UNL     1      -0.521  -2.612  -1.142  1.00  0.00     0.118 C 
ATOM     17  C   UNL     1      -2.654  -4.085   0.151  1.00  0.00     0.022 C 
ATOM     18  C   UNL     1      -0.461  -4.138  -1.038  1.00  0.00     0.022 C 
ATOM     19  C   UNL     1      -1.885  -4.700  -1.021  1.00  0.00     0.004 C 
ENDBRANCH   6  14
ENDBRANCH   1   2
BRANCH   1  20
ATOM     20  C   UNL     1       1.926   3.675   1.446  1.00  0.00     0.139 C 
BRANCH  20  21
ATOM     21  N   UNL     1       2.392   5.064   1.449  1.00  0.00    -0.353 N 
ATOM     22  C   UNL     1       2.617   5.697   2.618  1.00  0.00     0.232 C 
ATOM     23  H   UNL     1       2.547   5.558   0.558  1.00  0.00     0.163 HD
ATOM     24  O   UNL     1       2.434   5.117   3.667  1.00  0.00    -0.274 OA
BRANCH  22  25
ATOM     25  C   UNL     1       3.096   7.126   2.621  1.00  0.00     0.146 C 
ATOM     26  C   UNL     1       3.256   7.593   4.042  1.00  0.00     0.012 A 
ATOM     27  C   UNL     1       4.407   7.212   1.888  1.00  0.00     0.012 A 
ATOM     28  C   UNL     1       4.510   7.668   4.626  1.00  0.00     0.131 A 
ATOM     29  C   UNL     1       2.134   7.950   4.769  1.00  0.00     0.009 A 
ATOM     30  C   UNL     1       5.602   7.306   2.581  1.00  0.00     0.131 A 
ATOM     31  C   UNL     1       4.413   7.197   0.503  1.00  0.00     0.009 A 
ATOM     32  O   UNL     1       5.623   7.324   3.936  1.00  0.00    -0.457 OA
ATOM     33  C   UNL     1       4.633   8.102   5.941  1.00  0.00     0.047 A 
ATOM     34  C   UNL     1       2.260   8.382   6.076  1.00  0.00     0.001 A 
ATOM     35  C   UNL     1       6.801   7.386   1.882  1.00  0.00     0.047 A 
ATOM     36  C   UNL     1       5.607   7.275  -0.188  1.00  0.00     0.001 A 
ATOM     37  C   UNL     1       3.511   8.457   6.662  1.00  0.00     0.004 A 
ATOM     38  C   UNL     1       6.801   7.370   0.502  1.00  0.00     0.004 A 
ENDBRANCH  22  25
ENDBRANCH  20  21
ENDBRANCH   1  20
TORSDOF 7
