REMARK SMILES C[C@@H]1CCC[C@@]2(C)C[C@@H]3OC(=O)[C@@H](C[N@@H+](C)[C@@H](C)[C@@H](O)c4ccccc4)[C@@H]3C=C12
REMARK SMILES IDX 16 1 15 2 14 4 13 5 1 6 2 7 29 8 3 9 6 10 28 11 4 12 5 13
REMARK SMILES IDX 8 14 7 15 27 16 9 17 10 18 11 19 12 20 17 21 18 22 19 23
REMARK SMILES IDX 21 24 26 25 22 26 25 27 23 28 24 29 20 30
REMARK H PARENT 15 3 20 31
REMARK Flexibility Score: inf
ROOT
ATOM      1  C   UNL     1      -2.631   4.059   0.698  1.00  0.00     0.333 C 
ATOM      2  N   UNL     1      -1.403   4.752   0.254  1.00  0.00    -0.332 N 
ATOM      3  H   UNL     1      -1.589   5.764   0.208  1.00  0.00     0.348 HD
ENDROOT
BRANCH   2   4
ATOM      4  C   UNL     1      -1.011   4.274  -1.088  1.00  0.00     0.278 C 
BRANCH   4   5
ATOM      5  C   UNL     1      -2.088   4.684  -2.093  1.00  0.00     0.164 C 
ATOM      6  C   UNL     1      -6.172   6.946   0.341  1.00  0.00     0.012 C 
ATOM      7  C   UNL     1      -5.184   7.843  -0.393  1.00  0.00     0.012 C 
ATOM      8  C   UNL     1      -4.404   7.119  -1.470  1.00  0.00    -0.065 C 
ATOM      9  C   UNL     1      -5.867   9.067  -1.004  1.00  0.00     0.008 C 
ATOM     10  C   UNL     1      -5.027   6.858  -2.803  1.00  0.00    -0.008 C 
ATOM     11  C   UNL     1      -3.173   6.795  -1.197  1.00  0.00    -0.019 C 
ATOM     12  C   UNL     1      -6.591   8.741  -2.302  1.00  0.00     0.001 C 
ATOM     13  C   UNL     1      -5.644   8.143  -3.342  1.00  0.00     0.011 C 
ATOM     14  C   UNL     1      -4.121   6.178  -3.801  1.00  0.00     0.057 C 
ATOM     15  C   UNL     1      -6.180   5.860  -2.614  1.00  0.00     0.016 C 
ATOM     16  C   UNL     1      -2.221   6.210  -2.156  1.00  0.00     0.073 C 
ATOM     17  C   UNL     1      -2.630   6.434  -3.622  1.00  0.00     0.185 C 
ATOM     18  O   UNL     1      -1.936   5.351  -4.333  1.00  0.00    -0.461 OA
ATOM     19  C   UNL     1      -1.662   4.328  -3.508  1.00  0.00     0.315 C 
ATOM     20  O   UNL     1      -1.152   3.277  -3.837  1.00  0.00    -0.252 OA
ENDBRANCH   4   5
ENDBRANCH   2   4
BRANCH   2  21
ATOM     21  C   UNL     1      -0.309   4.508   1.218  1.00  0.00     0.214 C 
ATOM     22  C   UNL     1       0.956   5.212   0.722  1.00  0.00     0.078 C 
BRANCH  21  23
ATOM     23  C   UNL     1      -0.710   5.080   2.579  1.00  0.00     0.202 C 
BRANCH  23  24
ATOM     24  C   UNL     1      -0.970   6.559   2.446  1.00  0.00    -0.014 A 
ATOM     25  C   UNL     1      -2.263   7.022   2.288  1.00  0.00     0.006 A 
ATOM     26  C   UNL     1       0.085   7.452   2.487  1.00  0.00     0.006 A 
ATOM     27  C   UNL     1      -2.501   8.378   2.167  1.00  0.00     0.000 A 
ATOM     28  C   UNL     1      -0.153   8.808   2.362  1.00  0.00     0.000 A 
ATOM     29  C   UNL     1      -1.446   9.271   2.203  1.00  0.00     0.000 A 
ENDBRANCH  23  24
BRANCH  23  30
ATOM     30  O   UNL     1       0.347   4.864   3.516  1.00  0.00    -0.382 OA
ATOM     31  H   UNL     1       1.168   5.316   3.198  1.00  0.00     0.211 HD
ENDBRANCH  23  30
ENDBRANCH  21  23
ENDBRANCH   2  21
TORSDOF 6
