REMARK SMILES Oc1ccc(N2CCN(Cn3nc(-c4cccnc4)n(Cc4ccccc4)c3=S)CC2)cc1
REMARK SMILES IDX 10 1 11 2 20 3 28 4 13 5 29 6 12 7 21 8 22 9 25 10 26 11
REMARK SMILES IDX 24 12 27 13 23 14 14 15 19 16 15 17 18 18 16 19 17 20 9 21
REMARK SMILES IDX 30 22 8 23 31 24 7 25 6 26 5 27 32 28 4 29 33 30 3 31 2 32
REMARK SMILES IDX 1 33
REMARK H PARENT 1 34
REMARK Flexibility Score: inf
ROOT
ATOM      1  C   UNL     1       1.411   6.748  -1.423  1.00  0.00     0.234 C 
ENDROOT
BRANCH   1   2
ATOM      2  N   UNL     1       0.584   7.686  -2.186  1.00  0.00    -0.223 N 
ATOM      3  N   UNL     1      -0.968   9.108  -2.740  1.00  0.00    -0.295 N 
ATOM      4  C   UNL     1      -0.497   8.350  -1.730  1.00  0.00     0.199 A 
ATOM      5  C   UNL     1      -0.162   8.909  -3.843  1.00  0.00     0.164 A 
ATOM      6  S   UNL     1      -1.153   8.249  -0.151  1.00  0.00    -0.038 S 
ATOM      7  N   UNL     1       0.777   8.063  -3.523  1.00  0.00    -0.150 NA
BRANCH   3   8
ATOM      8  C   UNL     1      -2.136   9.991  -2.678  1.00  0.00     0.162 C 
BRANCH   8   9
ATOM      9  C   UNL     1      -1.687  11.395  -2.365  1.00  0.00    -0.028 A 
ATOM     10  C   UNL     1      -0.866  13.972  -1.790  1.00  0.00     0.000 A 
ATOM     11  C   UNL     1      -1.181  13.101  -0.763  1.00  0.00     0.000 A 
ATOM     12  C   UNL     1      -0.962  13.554  -3.104  1.00  0.00     0.000 A 
ATOM     13  C   UNL     1      -1.597  11.815  -1.051  1.00  0.00     0.005 A 
ATOM     14  C   UNL     1      -1.373  12.265  -3.392  1.00  0.00     0.005 A 
ENDBRANCH   8   9
ENDBRANCH   3   8
BRANCH   5  15
ATOM     15  C   UNL     1      -0.331   9.553  -5.164  1.00  0.00     0.038 A 
ATOM     16  C   UNL     1      -1.605   9.804  -5.673  1.00  0.00     0.123 A 
ATOM     17  C   UNL     1       0.785   9.914  -5.928  1.00  0.00     0.015 A 
ATOM     18  N   UNL     1      -1.756  10.382  -6.847  1.00  0.00    -0.264 NA
ATOM     19  C   UNL     1       0.573  10.513  -7.157  1.00  0.00     0.021 A 
ATOM     20  C   UNL     1      -0.724  10.734  -7.588  1.00  0.00     0.111 A 
ENDBRANCH   5  15
ENDBRANCH   1   2
BRANCH   1  21
ATOM     21  N   UNL     1       0.874   5.388  -1.574  1.00  0.00    -0.281 NA
ATOM     22  C   UNL     1      -0.584   5.375  -1.393  1.00  0.00     0.108 C 
ATOM     23  C   UNL     1       1.527   4.459  -0.642  1.00  0.00     0.108 C 
ATOM     24  C   UNL     1      -1.112   3.959  -1.635  1.00  0.00     0.132 C 
ATOM     25  C   UNL     1       0.998   3.043  -0.884  1.00  0.00     0.132 C 
ATOM     26  N   UNL     1      -0.460   3.029  -0.703  1.00  0.00    -0.369 N 
BRANCH  26  27
ATOM     27  C   UNL     1      -0.971   1.734  -0.847  1.00  0.00     0.037 A 
ATOM     28  C   UNL     1      -0.115   0.676  -1.123  1.00  0.00     0.030 A 
ATOM     29  C   UNL     1      -2.334   1.507  -0.712  1.00  0.00     0.030 A 
ATOM     30  C   UNL     1      -0.621  -0.601  -1.266  1.00  0.00     0.048 A 
ATOM     31  C   UNL     1      -2.838   0.229  -0.854  1.00  0.00     0.048 A 
ATOM     32  C   UNL     1      -1.982  -0.827  -1.132  1.00  0.00     0.115 A 
BRANCH  32  33
ATOM     33  O   UNL     1      -2.479  -2.086  -1.272  1.00  0.00    -0.508 OA
ATOM     34  H   UNL     1      -3.160  -2.013  -1.987  1.00  0.00     0.293 HD
ENDBRANCH  32  33
ENDBRANCH  26  27
ENDBRANCH   1  21
TORSDOF 7
