REMARK SMILES O=C(CCc1cc2c(n1-c1ccc3c(c1)OCO3)-c1ccccc1CC2)NC1CC[NH2+]CC1
REMARK SMILES IDX 4 1 5 2 22 3 23 4 21 5 24 6 20 7 19 8 25 9 8 10 26 11 7 12
REMARK SMILES IDX 9 13 6 14 10 15 15 16 11 17 14 18 12 19 13 20 16 21 18 22
REMARK SMILES IDX 17 23 3 24 2 25 1 26 27 27 28 29 33 30 29 31 32 32 30 33
REMARK SMILES IDX 31 34
REMARK H PARENT 27 28 31 35 31 36
REMARK Flexibility Score: inf
ROOT
ATOM      1  C   UNL     1       2.679   0.682   0.005  1.00  0.00     0.064 C 
ENDROOT
BRANCH   1   2
ATOM      2  C   UNL     1       3.848   1.633  -0.015  1.00  0.00     0.024 A 
ATOM      3  C   UNL     1       8.382   5.151  -2.887  1.00  0.00     0.000 A 
ATOM      4  C   UNL     1       8.514   4.955  -1.525  1.00  0.00     0.004 A 
ATOM      5  C   UNL     1       7.318   4.599  -3.579  1.00  0.00     0.001 A 
ATOM      6  C   UNL     1       7.582   4.206  -0.835  1.00  0.00    -0.038 A 
ATOM      7  C   UNL     1       6.367   3.860  -2.902  1.00  0.00     0.010 A 
ATOM      8  C   UNL     1       6.483   3.683  -1.530  1.00  0.00     0.002 A 
ATOM      9  C   UNL     1       7.778   3.922   0.628  1.00  0.00     0.041 C 
ATOM     10  C   UNL     1       5.485   2.927  -0.749  1.00  0.00     0.057 A 
ATOM     11  C   UNL     1       6.457   3.841   1.391  1.00  0.00     0.042 C 
ATOM     12  C   UNL     1       5.483   2.987   0.624  1.00  0.00    -0.021 A 
ATOM     13  N   UNL     1       4.480   2.100  -1.137  1.00  0.00    -0.313 N 
ATOM     14  C   UNL     1       4.454   2.164   1.075  1.00  0.00     0.028 A 
BRANCH  13  15
ATOM     15  C   UNL     1       4.144   1.781  -2.461  1.00  0.00     0.050 A 
ATOM     16  C   UNL     1       2.951   2.237  -3.003  1.00  0.00     0.077 A 
ATOM     17  C   UNL     1       5.003   1.004  -3.227  1.00  0.00     0.031 A 
ATOM     18  C   UNL     1       2.623   1.926  -4.312  1.00  0.00     0.167 A 
ATOM     19  C   UNL     1       4.674   0.689  -4.531  1.00  0.00     0.053 A 
ATOM     20  C   UNL     1       3.486   1.146  -5.078  1.00  0.00     0.165 A 
ATOM     21  O   UNL     1       1.535   2.247  -5.072  1.00  0.00    -0.454 OA
ATOM     22  O   UNL     1       2.938   0.979  -6.318  1.00  0.00    -0.454 OA
ATOM     23  C   UNL     1       1.930   2.000  -6.434  1.00  0.00     0.468 C 
ENDBRANCH  13  15
ENDBRANCH   1   2
BRANCH   1  24
ATOM     24  C   UNL     1       1.376   1.479   0.097  1.00  0.00     0.106 C 
BRANCH  24  25
ATOM     25  C   UNL     1       0.206   0.528   0.117  1.00  0.00     0.220 C 
ATOM     26  O   UNL     1       0.397  -0.668   0.062  1.00  0.00    -0.275 OA
ATOM     27  N   UNL     1      -1.051   1.008   0.189  1.00  0.00    -0.353 N 
ATOM     28  H   UNL     1      -1.212   2.024   0.236  1.00  0.00     0.163 HD
BRANCH  27  29
ATOM     29  C   UNL     1      -2.188   0.084   0.202  1.00  0.00     0.093 C 
ATOM     30  C   UNL     1      -3.383   0.753   0.888  1.00  0.00     0.086 C 
ATOM     31  C   UNL     1      -2.570  -0.278  -1.236  1.00  0.00     0.086 C 
ATOM     32  C   UNL     1      -4.585  -0.193   0.844  1.00  0.00     0.262 C 
ATOM     33  C   UNL     1      -3.796  -1.193  -1.218  1.00  0.00     0.262 C 
ATOM     34  N   UNL     1      -4.912  -0.508  -0.552  1.00  0.00    -0.346 N 
ATOM     35  H   UNL     1      -5.745  -1.112  -0.577  1.00  0.00     0.346 HD
ATOM     36  H   UNL     1      -5.122   0.366  -1.056  1.00  0.00     0.346 HD
ENDBRANCH  27  29
ENDBRANCH  24  25
ENDBRANCH   1  24
TORSDOF 5
