REMARK SMILES NC(=[NH2+])c1ccc(CNC(=O)Cn2c(-c3ccccc3F)c(Cl)nc(NCCc3ccccc3)c2=O)cc1
REMARK SMILES IDX 25 1 35 2 36 3 13 4 14 5 22 6 24 7 23 8 26 9 27 11 28 12
REMARK SMILES IDX 29 13 32 14 33 15 31 16 34 17 30 18 12 19 10 20 11 21 9 22
REMARK SMILES IDX 8 24 7 25 37 26 6 27 38 28 5 29 4 30 2 31 1 32 3 33 15 38
REMARK SMILES IDX 20 39 16 40 19 41 21 42 17 43 18 44
REMARK H PARENT 26 10 9 23 1 34 1 35 3 36 3 37
REMARK Flexibility Score: inf
ROOT
ATOM      1  C   UNL     1       0.620   6.471  -1.962  1.00  0.00     0.194 A 
ATOM      2  C   UNL     1       1.038   5.686  -0.797  1.00  0.00     0.294 A 
ATOM      3  O   UNL     1       1.809   6.154   0.024  1.00  0.00    -0.265 OA
ATOM      4  N   UNL     1       0.553   4.433  -0.651  1.00  0.00    -0.293 N 
ATOM      5  C   UNL     1      -0.308   3.937  -1.598  1.00  0.00     0.092 A 
ATOM      6  C   UNL     1      -0.680   4.710  -2.675  1.00  0.00     0.156 A 
ATOM      7  N   UNL     1      -0.213   5.944  -2.835  1.00  0.00    -0.211 NA
ATOM      8  Cl  UNL     1      -1.775   4.056  -3.852  1.00  0.00    -0.060 Cl
ENDROOT
BRANCH   1   9
ATOM      9  N   UNL     1       1.099   7.762  -2.143  1.00  0.00    -0.365 N 
ATOM     10  H   UNL     1       1.750   8.171  -1.458  1.00  0.00     0.162 HD
BRANCH   9  11
ATOM     11  C   UNL     1       0.678   8.543  -3.309  1.00  0.00     0.119 C 
BRANCH  11  12
ATOM     12  C   UNL     1       1.345   9.919  -3.270  1.00  0.00     0.056 C 
BRANCH  12  13
ATOM     13  C   UNL     1       0.912  10.722  -4.469  1.00  0.00    -0.046 A 
ATOM     14  C   UNL     1       0.117  12.195  -6.670  1.00  0.00     0.000 A 
ATOM     15  C   UNL     1       1.243  11.395  -6.743  1.00  0.00     0.000 A 
ATOM     16  C   UNL     1      -0.611  12.258  -5.497  1.00  0.00     0.000 A 
ATOM     17  C   UNL     1       1.643  10.663  -5.641  1.00  0.00     0.004 A 
ATOM     18  C   UNL     1      -0.214  11.521  -4.396  1.00  0.00     0.004 A 
ENDBRANCH  12  13
ENDBRANCH  11  12
ENDBRANCH   9  11
ENDBRANCH   1   9
BRANCH   4  19
ATOM     19  C   UNL     1       0.945   3.614   0.498  1.00  0.00     0.226 C 
BRANCH  19  20
ATOM     20  C   UNL     1      -0.070   3.776   1.600  1.00  0.00     0.240 C 
ATOM     21  O   UNL     1      -1.027   4.504   1.441  1.00  0.00    -0.273 OA
ATOM     22  N   UNL     1       0.085   3.111   2.763  1.00  0.00    -0.350 N 
ATOM     23  H   UNL     1       0.898   2.493   2.898  1.00  0.00     0.163 HD
BRANCH  22  24
ATOM     24  C   UNL     1      -0.901   3.268   3.834  1.00  0.00     0.151 C 
BRANCH  24  25
ATOM     25  C   UNL     1      -0.498   2.426   5.016  1.00  0.00    -0.029 A 
ATOM     26  C   UNL     1       0.314   2.962   5.999  1.00  0.00     0.006 A 
ATOM     27  C   UNL     1      -0.946   1.121   5.117  1.00  0.00     0.006 A 
ATOM     28  C   UNL     1       0.687   2.195   7.084  1.00  0.00     0.017 A 
ATOM     29  C   UNL     1      -0.576   0.342   6.194  1.00  0.00     0.017 A 
ATOM     30  C   UNL     1       0.243   0.877   7.189  1.00  0.00     0.063 A 
BRANCH  30  31
ATOM     31  C   UNL     1       0.640   0.049   8.350  1.00  0.00     0.270 C 
ATOM     32  N   UNL     1       0.200  -1.253   8.450  1.00  0.00    -0.287 N 
ATOM     33  N   UNL     1       1.418   0.618   9.258  1.00  0.00    -0.287 N 
ATOM     34  H   UNL     1      -0.405  -1.650   7.718  1.00  0.00     0.302 HD
ATOM     35  H   UNL     1       0.476  -1.829   9.258  1.00  0.00     0.302 HD
ATOM     36  H   UNL     1       1.742   1.592   9.173  1.00  0.00     0.302 HD
ATOM     37  H   UNL     1       1.707   0.060  10.074  1.00  0.00     0.302 HD
ENDBRANCH  30  31
ENDBRANCH  24  25
ENDBRANCH  22  24
ENDBRANCH  19  20
ENDBRANCH   4  19
BRANCH   5  38
ATOM     38  C   UNL     1      -0.844   2.569  -1.458  1.00  0.00     0.037 A 
ATOM     39  C   UNL     1      -2.208   2.369  -1.224  1.00  0.00     0.132 A 
ATOM     40  C   UNL     1       0.011   1.468  -1.552  1.00  0.00     0.013 A 
ATOM     41  C   UNL     1      -2.701   1.083  -1.098  1.00  0.00     0.040 A 
ATOM     42  F   UNL     1      -3.041   3.427  -1.126  1.00  0.00    -0.206 F 
ATOM     43  C   UNL     1      -0.496   0.192  -1.420  1.00  0.00     0.001 A 
ATOM     44  C   UNL     1      -1.848  -0.000  -1.193  1.00  0.00     0.003 A 
ENDBRANCH   5  38
TORSDOF 10
