REMARK SMILES CC(C)C[C@@H](NC(=O)c1ccc(Cl)cc1)C(=O)N/N=C/c1cc(Br)ccc1OC(C)C
REMARK SMILES IDX 16 1 17 2 18 3 5 5 4 6 2 7 1 8 3 9 6 10 7 11 8 13 9 14 15 15
REMARK SMILES IDX 10 16 14 17 11 18 12 19 13 20 19 21 20 22 21 23 27 24 22 25
REMARK SMILES IDX 26 26 23 27 25 28 24 29 28 30 29 31 30 32 31 33
REMARK H PARENT 18 4 6 12
REMARK Flexibility Score: inf
ROOT
ATOM      1  C   UNL     1      -1.163   1.683  -0.662  1.00  0.00     0.262 C 
ATOM      2  O   UNL     1      -1.186   2.879  -0.465  1.00  0.00    -0.271 OA
ATOM      3  N   UNL     1       0.013   1.024  -0.670  1.00  0.00    -0.245 N 
ATOM      4  H   UNL     1       0.033   0.007  -0.834  1.00  0.00     0.193 HD
ENDROOT
BRANCH   1   5
ATOM      5  C   UNL     1      -2.448   0.933  -0.899  1.00  0.00     0.173 C 
BRANCH   5   6
ATOM      6  C   UNL     1      -2.619  -0.140   0.179  1.00  0.00     0.038 C 
BRANCH   6   7
ATOM      7  C   UNL     1      -3.858  -0.982  -0.132  1.00  0.00    -0.015 C 
ATOM      8  C   UNL     1      -3.639  -1.750  -1.437  1.00  0.00     0.007 C 
ATOM      9  C   UNL     1      -4.100  -1.973   1.009  1.00  0.00     0.007 C 
ENDBRANCH   6   7
ENDBRANCH   5   6
BRANCH   5  10
ATOM     10  N   UNL     1      -3.576   1.866  -0.841  1.00  0.00    -0.340 N 
ATOM     11  C   UNL     1      -4.722   1.580  -1.490  1.00  0.00     0.251 C 
ATOM     12  H   UNL     1      -3.493   2.741  -0.304  1.00  0.00     0.164 HD
ATOM     13  O   UNL     1      -4.820   0.547  -2.123  1.00  0.00    -0.269 OA
BRANCH  11  14
ATOM     14  C   UNL     1      -5.859   2.522  -1.432  1.00  0.00     0.039 A 
ATOM     15  C   UNL     1      -7.047   2.228  -2.103  1.00  0.00     0.015 A 
ATOM     16  C   UNL     1      -5.752   3.706  -0.700  1.00  0.00     0.015 A 
ATOM     17  C   UNL     1      -8.105   3.111  -2.045  1.00  0.00     0.021 A 
ATOM     18  C   UNL     1      -6.814   4.584  -0.655  1.00  0.00     0.021 A 
ATOM     19  C   UNL     1      -7.990   4.287  -1.323  1.00  0.00     0.041 A 
ATOM     20  Cl  UNL     1      -9.326   5.394  -1.255  1.00  0.00    -0.084 Cl
ENDBRANCH  11  14
ENDBRANCH   5  10
ENDBRANCH   1   5
BRANCH   3  21
ATOM     21  N   UNL     1       1.209   1.722  -0.456  1.00  0.00    -0.181 NA
ATOM     22  C   UNL     1       2.341   1.088  -0.469  1.00  0.00     0.145 C 
BRANCH  22  23
ATOM     23  C   UNL     1       3.599   1.822  -0.243  1.00  0.00     0.038 A 
ATOM     24  C   UNL     1       3.577   3.205  -0.015  1.00  0.00     0.128 A 
ATOM     25  C   UNL     1       4.820   1.143  -0.251  1.00  0.00     0.029 A 
ATOM     26  C   UNL     1       4.765   3.886   0.196  1.00  0.00     0.048 A 
ATOM     27  C   UNL     1       5.994   1.837  -0.044  1.00  0.00     0.018 A 
ATOM     28  C   UNL     1       5.967   3.204   0.182  1.00  0.00     0.019 A 
ATOM     29  Br  UNL     1       7.647   0.919  -0.062  1.00  0.00    -0.051 Br
BRANCH  24  30
ATOM     30  O   UNL     1       2.395   3.874   0.000  1.00  0.00    -0.490 OA
BRANCH  30  31
ATOM     31  C   UNL     1       2.457   5.297   0.118  1.00  0.00     0.167 C 
ATOM     32  C   UNL     1       1.194   5.914  -0.486  1.00  0.00     0.052 C 
ATOM     33  C   UNL     1       2.556   5.682   1.596  1.00  0.00     0.052 C 
ENDBRANCH  30  31
ENDBRANCH  24  30
ENDBRANCH  22  23
ENDBRANCH   3  21
TORSDOF 9
