REMARK SMILES CC(C)[NH+]1CCC2(CC1)N=C(c1ccc(Cl)cc1)C[C@H](c1cc(Br)ccc1O)N2
REMARK SMILES IDX 4 1 5 2 6 3 7 4 8 5 9 6 29 7 20 8 19 9 11 10 10 11 2 14 1 15
REMARK SMILES IDX 3 16 12 17 18 18 13 19 17 20 14 21 15 22 16 23 21 24 27 25
REMARK SMILES IDX 22 26 26 27 23 28 25 29 24 30 28 31
REMARK H PARENT 4 12 29 13 28 32
REMARK Flexibility Score: inf
ROOT
ATOM      1  N   UNL     1       5.339   7.440   2.442  1.00  0.00    -0.333 N 
ATOM      2  C   UNL     1       5.640   6.057   2.051  1.00  0.00     0.266 C 
ATOM      3  C   UNL     1       4.334   5.289   1.836  1.00  0.00     0.108 C 
ATOM      4  C   UNL     1       3.517   5.981   0.739  1.00  0.00     0.122 C 
ATOM      5  C   UNL     1       3.254   7.432   1.155  1.00  0.00     0.108 C 
ATOM      6  C   UNL     1       4.591   8.139   1.389  1.00  0.00     0.266 C 
ATOM      7  N   UNL     1       2.234   5.283   0.581  1.00  0.00    -0.285 NA
ATOM      8  C   UNL     1       2.450   3.947  -0.001  1.00  0.00     0.096 C 
ATOM      9  C   UNL     1       2.936   4.126  -1.442  1.00  0.00     0.080 C 
ATOM     10  C   UNL     1       4.032   5.155  -1.478  1.00  0.00     0.046 C 
ATOM     11  N   UNL     1       4.267   5.961  -0.512  1.00  0.00    -0.266 NA
ATOM     12  H   UNL     1       4.742   7.405   3.281  1.00  0.00     0.348 HD
ATOM     13  H   UNL     1       1.782   5.185   1.502  1.00  0.00     0.125 HD
ENDROOT
BRANCH   1  14
ATOM     14  C   UNL     1       6.566   8.168   2.789  1.00  0.00     0.177 C 
ATOM     15  C   UNL     1       6.227   9.634   3.069  1.00  0.00     0.075 C 
ATOM     16  C   UNL     1       7.196   7.543   4.035  1.00  0.00     0.075 C 
ENDBRANCH   1  14
BRANCH  10  17
ATOM     17  C   UNL     1       4.878   5.239  -2.684  1.00  0.00    -0.004 A 
ATOM     18  C   UNL     1       5.907   6.181  -2.755  1.00  0.00     0.011 A 
ATOM     19  C   UNL     1       4.658   4.372  -3.756  1.00  0.00     0.011 A 
ATOM     20  C   UNL     1       6.694   6.254  -3.884  1.00  0.00     0.021 A 
ATOM     21  C   UNL     1       5.449   4.458  -4.882  1.00  0.00     0.021 A 
ATOM     22  C   UNL     1       6.467   5.395  -4.947  1.00  0.00     0.041 A 
ATOM     23  Cl  UNL     1       7.463   5.493  -6.365  1.00  0.00    -0.084 Cl
ENDBRANCH  10  17
BRANCH   8  24
ATOM     24  C   UNL     1       1.158   3.173   0.008  1.00  0.00     0.012 A 
ATOM     25  C   UNL     1       1.179   1.786   0.000  1.00  0.00     0.120 A 
ATOM     26  C   UNL     1      -0.050   3.844   0.023  1.00  0.00     0.024 A 
ATOM     27  C   UNL     1      -0.013   1.076   0.008  1.00  0.00     0.047 A 
ATOM     28  C   UNL     1      -1.237   3.134   0.031  1.00  0.00     0.018 A 
ATOM     29  C   UNL     1      -1.218   1.751   0.017  1.00  0.00     0.019 A 
ATOM     30  Br  UNL     1      -2.888   4.055   0.052  1.00  0.00    -0.051 Br
BRANCH  25  31
ATOM     31  O   UNL     1       2.366   1.124  -0.014  1.00  0.00    -0.508 OA
ATOM     32  H   UNL     1       2.854   1.459   0.779  1.00  0.00     0.293 HD
ENDBRANCH  25  31
ENDBRANCH   8  24
TORSDOF 4
