REMARK SMILES CCOc1cc(/C=N/NC2=c3cc(Cl)cc(Cl)c3=NC2=O)ccc1O
REMARK SMILES IDX 4 1 5 2 6 3 22 4 23 5 24 6 3 7 2 8 1 9 25 10 7 12 8 13 9 14
REMARK SMILES IDX 10 16 20 17 11 18 19 19 21 20 18 21 12 22 16 23 13 24 15 25
REMARK SMILES IDX 17 26 14 27
REMARK H PARENT 25 11 9 15
REMARK Flexibility Score: inf
ROOT
ATOM      1  C   UNL     1       1.171   2.100   0.002  1.00  0.00     0.161 A 
ATOM      2  C   UNL     1      -0.017   1.397   0.010  1.00  0.00     0.060 A 
ATOM      3  C   UNL     1       0.002  -0.004   0.002  1.00  0.00    -0.002 A 
ATOM      4  C   UNL     1       1.228  -0.684  -0.013  1.00  0.00     0.014 A 
ATOM      5  C   UNL     1       2.408   0.026  -0.021  1.00  0.00     0.051 A 
ATOM      6  C   UNL     1       2.387   1.415  -0.013  1.00  0.00     0.157 A 
ENDROOT
BRANCH   1   7
ATOM      7  O   UNL     1       1.156   3.459   0.010  1.00  0.00    -0.490 OA
BRANCH   7   8
ATOM      8  C   UNL     1      -0.124   4.095   0.025  1.00  0.00     0.226 C 
ATOM      9  C   UNL     1       0.061   5.613   0.032  1.00  0.00     0.049 C 
ENDBRANCH   7   8
ENDBRANCH   1   7
BRANCH   6  10
ATOM     10  O   UNL     1       3.554   2.109  -0.021  1.00  0.00    -0.504 OA
ATOM     11  H   UNL     1       3.510   2.691   0.778  1.00  0.00     0.293 HD
ENDBRANCH   6  10
BRANCH   3  12
ATOM     12  C   UNL     1      -1.257  -0.757   0.009  1.00  0.00     0.141 C 
ATOM     13  N   UNL     1      -1.237  -2.065   0.002  1.00  0.00    -0.183 NA
BRANCH  13  14
ATOM     14  N   UNL     1      -2.439  -2.784   0.009  1.00  0.00    -0.272 N 
ATOM     15  H   UNL     1      -3.339  -2.283   0.020  1.00  0.00     0.190 HD
BRANCH  14  16
ATOM     16  C   UNL     1      -2.419  -4.118   0.002  1.00  0.00     0.133 C 
ATOM     17  C   UNL     1      -3.586  -5.054   0.007  1.00  0.00     0.296 C 
ATOM     18  C   UNL     1      -1.248  -4.998  -0.019  1.00  0.00     0.034 A 
ATOM     19  N   UNL     1      -3.116  -6.287  -0.004  1.00  0.00    -0.206 NA
ATOM     20  O   UNL     1      -4.763  -4.734   0.020  1.00  0.00    -0.265 OA
ATOM     21  C   UNL     1      -1.755  -6.321  -0.015  1.00  0.00     0.096 A 
ATOM     22  C   UNL     1       0.129  -4.771  -0.024  1.00  0.00     0.033 A 
ATOM     23  C   UNL     1      -0.853  -7.386  -0.030  1.00  0.00     0.069 A 
ATOM     24  C   UNL     1       1.000  -5.845  -0.038  1.00  0.00     0.043 A 
ATOM     25  C   UNL     1       0.510  -7.141  -0.041  1.00  0.00     0.043 A 
ATOM     26  Cl  UNL     1      -1.440  -9.019  -0.033  1.00  0.00    -0.082 Cl
ATOM     27  Cl  UNL     1       2.714  -5.568  -0.051  1.00  0.00    -0.084 Cl
ENDBRANCH  14  16
ENDBRANCH  13  14
ENDBRANCH   3  12
TORSDOF 6
