REMARK SMILES O=C(NC1CC[NH+](Cc2ccccc2)CC1)[C@H]1c2ccccc2C(=O)N2CCc3ccccc3[C@@H]12
REMARK SMILES IDX 6 1 5 2 4 3 16 4 15 5 7 6 8 8 9 9 12 10 13 11 11 12 14 13
REMARK SMILES IDX 10 14 3 15 2 16 1 18 17 19 35 20 18 21 26 22 34 23 23 24
REMARK SMILES IDX 19 25 24 26 27 27 29 28 33 29 22 30 20 31 25 32 28 33 30 34
REMARK SMILES IDX 32 35 21 36 31 37
REMARK H PARENT 7 7 3 17
REMARK Flexibility Score: inf
ROOT
ATOM      1  C   UNL     1      -2.436   1.098   7.376  1.00  0.00     0.264 C 
ATOM      2  C   UNL     1      -2.659   0.277   6.104  1.00  0.00     0.086 C 
ATOM      3  C   UNL     1      -2.092   1.040   4.903  1.00  0.00     0.093 C 
ATOM      4  C   UNL     1      -0.606   1.319   5.141  1.00  0.00     0.086 C 
ATOM      5  C   UNL     1      -0.441   2.109   6.442  1.00  0.00     0.264 C 
ATOM      6  N   UNL     1      -0.985   1.310   7.561  1.00  0.00    -0.331 N 
ATOM      7  H   UNL     1      -0.513   0.394   7.577  1.00  0.00     0.348 HD
ENDROOT
BRANCH   6   8
ATOM      8  C   UNL     1      -0.735   2.002   8.842  1.00  0.00     0.299 C 
BRANCH   8   9
ATOM      9  C   UNL     1       0.703   2.450   8.890  1.00  0.00     0.006 A 
ATOM     10  C   UNL     1       3.341   3.271   8.978  1.00  0.00     0.000 A 
ATOM     11  C   UNL     1       2.993   2.015   9.438  1.00  0.00     0.001 A 
ATOM     12  C   UNL     1       2.371   4.117   8.474  1.00  0.00     0.001 A 
ATOM     13  C   UNL     1       1.673   1.606   9.398  1.00  0.00     0.009 A 
ATOM     14  C   UNL     1       1.052   3.706   8.430  1.00  0.00     0.009 A 
ENDBRANCH   8   9
ENDBRANCH   6   8
BRANCH   3  15
ATOM     15  N   UNL     1      -2.251   0.233   3.691  1.00  0.00    -0.352 N 
ATOM     16  C   UNL     1      -2.307   0.833   2.485  1.00  0.00     0.230 C 
ATOM     17  H   UNL     1      -2.320  -0.792   3.760  1.00  0.00     0.163 HD
ATOM     18  O   UNL     1      -2.225   2.040   2.404  1.00  0.00    -0.274 OA
BRANCH  16  19
ATOM     19  C   UNL     1      -2.470   0.003   1.238  1.00  0.00     0.136 C 
ATOM     20  C   UNL     1      -2.485   0.923   0.015  1.00  0.00     0.133 C 
ATOM     21  C   UNL     1      -3.757  -0.773   1.320  1.00  0.00    -0.020 A 
ATOM     22  N   UNL     1      -3.692   1.730  -0.027  1.00  0.00    -0.330 N 
ATOM     23  C   UNL     1      -1.229   1.749   0.017  1.00  0.00    -0.021 A 
ATOM     24  C   UNL     1      -4.942  -0.172   0.889  1.00  0.00     0.044 A 
ATOM     25  C   UNL     1      -3.781  -2.051   1.833  1.00  0.00     0.005 A 
ATOM     26  C   UNL     1      -4.886   1.191   0.326  1.00  0.00     0.254 C 
ATOM     27  C   UNL     1      -3.688   3.114  -0.489  1.00  0.00     0.125 C 
ATOM     28  C   UNL     1      -1.244   3.124   0.037  1.00  0.00    -0.041 A 
ATOM     29  C   UNL     1      -0.013   1.076   0.008  1.00  0.00     0.006 A 
ATOM     30  C   UNL     1      -6.151  -0.851   1.018  1.00  0.00     0.014 A 
ATOM     31  C   UNL     1      -4.984  -2.729   1.942  1.00  0.00     0.000 A 
ATOM     32  O   UNL     1      -5.909   1.830   0.179  1.00  0.00    -0.269 OA
ATOM     33  C   UNL     1      -2.525   3.906   0.068  1.00  0.00     0.057 C 
ATOM     34  C   UNL     1      -0.047   3.829   0.029  1.00  0.00     0.004 A 
ATOM     35  C   UNL     1       1.175   1.776   0.000  1.00  0.00     0.000 A 
ATOM     36  C   UNL     1      -6.164  -2.129   1.541  1.00  0.00     0.001 A 
ATOM     37  C   UNL     1       1.159   3.159   0.009  1.00  0.00     0.000 A 
ENDBRANCH  16  19
ENDBRANCH   3  15
TORSDOF 4
