REMARK SMILES COc1cccc([C@@H]2C(C#N)=C(N)Oc3[nH]nc(-c4ccc(CC(C)C)cc4)c32)c1OCc1ccc(F)cc1
REMARK SMILES IDX 18 1 29 2 15 3 16 4 17 5 14 6 12 7 9 8 8 9 19 11 22 12 27 13
REMARK SMILES IDX 21 14 28 15 20 16 23 17 24 18 25 19 26 20 7 21 30 22 6 23
REMARK SMILES IDX 3 24 5 25 4 26 31 27 32 28 33 29 39 30 34 31 38 32 35 33
REMARK SMILES IDX 36 34 37 35 2 36 1 37 10 38 11 39 13 40
REMARK H PARENT 16 10 13 41 13 42
REMARK Flexibility Score: inf
ROOT
ATOM      1  C   UNL     1      -2.707   2.942   4.748  1.00  0.00     0.100 A 
ATOM      2  C   UNL     1      -2.127   3.669   5.792  1.00  0.00     0.055 A 
ATOM      3  C   UNL     1      -3.095   3.916   6.723  1.00  0.00     0.222 A 
ATOM      4  N   UNL     1      -4.242   3.363   6.279  1.00  0.00    -0.246 N 
ATOM      5  N   UNL     1      -3.982   2.762   5.037  1.00  0.00    -0.172 NA
ATOM      6  O   UNL     1      -2.853   4.607   7.864  1.00  0.00    -0.422 OA
ATOM      7  C   UNL     1      -1.693   5.291   7.947  1.00  0.00     0.207 C 
ATOM      8  C   UNL     1      -0.659   5.124   7.093  1.00  0.00     0.102 C 
ATOM      9  C   UNL     1      -0.705   4.138   5.952  1.00  0.00     0.107 C 
ATOM     10  H   UNL     1      -5.150   3.378   6.766  1.00  0.00     0.193 HD
ENDROOT
BRANCH   1  11
ATOM     11  C   UNL     1      -2.013   2.464   3.526  1.00  0.00     0.002 A 
ATOM     12  C   UNL     1      -0.718   1.572   1.248  1.00  0.00    -0.048 A 
ATOM     13  C   UNL     1      -1.720   0.805   1.816  1.00  0.00     0.004 A 
ATOM     14  C   UNL     1      -0.358   2.780   1.817  1.00  0.00     0.004 A 
ATOM     15  C   UNL     1      -2.369   1.246   2.952  1.00  0.00     0.011 A 
ATOM     16  C   UNL     1      -1.004   3.232   2.950  1.00  0.00     0.011 A 
BRANCH  12  17
ATOM     17  C   UNL     1      -0.013   1.086   0.008  1.00  0.00     0.038 C 
BRANCH  17  18
ATOM     18  C   UNL     1      -0.753   1.593  -1.232  1.00  0.00    -0.013 C 
ATOM     19  C   UNL     1       0.031   1.205  -2.487  1.00  0.00     0.008 C 
ATOM     20  C   UNL     1      -2.147   0.964  -1.286  1.00  0.00     0.008 C 
ENDBRANCH  17  18
ENDBRANCH  12  17
ENDBRANCH   1  11
BRANCH   9  21
ATOM     21  C   UNL     1       0.188   2.963   6.258  1.00  0.00     0.011 A 
ATOM     22  C   UNL     1       1.230   2.643   5.403  1.00  0.00     0.165 A 
ATOM     23  C   UNL     1      -0.038   2.200   7.389  1.00  0.00     0.009 A 
ATOM     24  C   UNL     1       2.055   1.560   5.692  1.00  0.00     0.161 A 
ATOM     25  C   UNL     1       0.779   1.122   7.673  1.00  0.00     0.004 A 
ATOM     26  C   UNL     1       1.824   0.800   6.827  1.00  0.00     0.050 A 
BRANCH  22  27
ATOM     27  O   UNL     1       1.449   3.389   4.287  1.00  0.00    -0.485 OA
BRANCH  27  28
ATOM     28  C   UNL     1       2.330   4.506   4.417  1.00  0.00     0.265 C 
BRANCH  28  29
ATOM     29  C   UNL     1       2.450   5.208   3.088  1.00  0.00    -0.011 A 
ATOM     30  C   UNL     1       1.577   6.229   2.764  1.00  0.00     0.010 A 
ATOM     31  C   UNL     1       3.438   4.833   2.197  1.00  0.00     0.010 A 
ATOM     32  C   UNL     1       1.687   6.873   1.546  1.00  0.00     0.039 A 
ATOM     33  C   UNL     1       3.547   5.472   0.976  1.00  0.00     0.039 A 
ATOM     34  C   UNL     1       2.672   6.495   0.650  1.00  0.00     0.123 A 
ATOM     35  F   UNL     1       2.780   7.123  -0.540  1.00  0.00    -0.207 F 
ENDBRANCH  28  29
ENDBRANCH  27  28
ENDBRANCH  22  27
BRANCH  24  36
ATOM     36  O   UNL     1       3.082   1.245   4.858  1.00  0.00    -0.493 OA
ATOM     37  C   UNL     1       3.884   0.117   5.214  1.00  0.00     0.278 C 
ENDBRANCH  24  36
ENDBRANCH   9  21
BRANCH   8  38
ATOM     38  C   UNL     1       0.522   5.911   7.278  1.00  0.00     0.101 C 
ATOM     39  N   UNL     1       1.460   6.536   7.425  1.00  0.00    -0.193 NA
ENDBRANCH   8  38
BRANCH   7  40
ATOM     40  N   UNL     1      -1.556   6.210   8.957  1.00  0.00    -0.369 N 
ATOM     41  H   UNL     1      -2.312   6.378   9.636  1.00  0.00     0.159 HD
ATOM     42  H   UNL     1      -0.676   6.741   9.035  1.00  0.00     0.159 HD
ENDBRANCH   7  40
TORSDOF 10
