REMARK SMILES CC[NH+](CC)Cc1ccccc1-c1ccc(N2CCc3c(C(N)=O)nn(-c4ccc(OC)cc4)c3C2=O)cc1
REMARK SMILES IDX 7 1 8 2 9 3 10 4 11 5 12 6 6 7 3 8 2 10 1 11 4 12 5 13 13 14
REMARK SMILES IDX 39 15 14 16 38 17 15 18 16 19 17 20 36 21 18 22 35 23 37 24
REMARK SMILES IDX 19 25 20 26 26 27 21 28 25 29 27 30 34 31 28 32 33 33 29 34
REMARK SMILES IDX 30 35 31 36 32 37 22 38 24 39 23 40
REMARK H PARENT 3 9 23 41 23 42
REMARK Flexibility Score: inf
ROOT
ATOM      1  C   UNL     1       1.372  -3.948  -1.085  1.00  0.00     0.014 A 
ATOM      2  C   UNL     1       1.590  -5.112  -1.794  1.00  0.00     0.010 A 
ATOM      3  C   UNL     1       0.947  -5.320  -3.001  1.00  0.00     0.001 A 
ATOM      4  C   UNL     1       0.079  -4.367  -3.501  1.00  0.00     0.001 A 
ATOM      5  C   UNL     1      -0.151  -3.202  -2.798  1.00  0.00     0.009 A 
ATOM      6  C   UNL     1       0.494  -2.986  -1.581  1.00  0.00    -0.010 A 
ENDROOT
BRANCH   1   7
ATOM      7  C   UNL     1       2.079  -3.719   0.227  1.00  0.00     0.299 C 
BRANCH   7   8
ATOM      8  N   UNL     1       1.103  -3.873   1.326  1.00  0.00    -0.332 N 
ATOM      9  H   UNL     1       0.283  -3.280   1.132  1.00  0.00     0.348 HD
BRANCH   8  10
ATOM     10  C   UNL     1       0.665  -5.281   1.421  1.00  0.00     0.259 C 
ATOM     11  C   UNL     1       1.859  -6.197   1.698  1.00  0.00     0.071 C 
ENDBRANCH   8  10
BRANCH   8  12
ATOM     12  C   UNL     1       1.711  -3.446   2.604  1.00  0.00     0.259 C 
ATOM     13  C   UNL     1       0.627  -3.425   3.684  1.00  0.00     0.071 C 
ENDBRANCH   8  12
ENDBRANCH   7   8
ENDBRANCH   1   7
BRANCH   6  14
ATOM     14  C   UNL     1       0.252  -1.736  -0.821  1.00  0.00    -0.018 A 
ATOM     15  C   UNL     1       1.318  -0.898  -0.497  1.00  0.00     0.011 A 
ATOM     16  C   UNL     1      -1.042  -1.397  -0.430  1.00  0.00     0.011 A 
ATOM     17  C   UNL     1       1.090   0.266   0.206  1.00  0.00     0.027 A 
ATOM     18  C   UNL     1      -1.265  -0.234   0.277  1.00  0.00     0.027 A 
ATOM     19  C   UNL     1      -0.201   0.599   0.600  1.00  0.00     0.044 A 
BRANCH  19  20
ATOM     20  N   UNL     1      -0.429   1.777   1.317  1.00  0.00    -0.307 N 
ATOM     21  C   UNL     1      -0.077   2.957   0.757  1.00  0.00     0.277 C 
ATOM     22  C   UNL     1      -1.032   1.685   2.641  1.00  0.00     0.131 C 
ATOM     23  C   UNL     1      -0.081   4.135   1.635  1.00  0.00     0.136 A 
ATOM     24  O   UNL     1       0.225   3.041  -0.418  1.00  0.00    -0.267 OA
ATOM     25  C   UNL     1      -0.393   2.646   3.646  1.00  0.00     0.062 C 
ATOM     26  C   UNL     1      -0.239   3.993   2.999  1.00  0.00     0.018 A 
ATOM     27  N   UNL     1       0.042   5.460   1.389  1.00  0.00    -0.227 N 
ATOM     28  C   UNL     1      -0.216   5.283   3.520  1.00  0.00     0.154 A 
ATOM     29  N   UNL     1      -0.043   6.114   2.500  1.00  0.00    -0.162 NA
BRANCH  27  30
ATOM     30  C   UNL     1       0.231   6.033   0.126  1.00  0.00     0.066 A 
ATOM     31  C   UNL     1      -0.525   5.598  -0.955  1.00  0.00     0.032 A 
ATOM     32  C   UNL     1       1.171   7.041  -0.046  1.00  0.00     0.032 A 
ATOM     33  C   UNL     1      -0.338   6.163  -2.200  1.00  0.00     0.048 A 
ATOM     34  C   UNL     1       1.362   7.601  -1.293  1.00  0.00     0.048 A 
ATOM     35  C   UNL     1       0.606   7.166  -2.372  1.00  0.00     0.119 A 
BRANCH  35  36
ATOM     36  O   UNL     1       0.789   7.723  -3.598  1.00  0.00    -0.497 OA
ATOM     37  C   UNL     1       1.777   8.750  -3.703  1.00  0.00     0.278 C 
ENDBRANCH  35  36
ENDBRANCH  27  30
BRANCH  28  38
ATOM     38  C   UNL     1      -0.356   5.657   4.942  1.00  0.00     0.269 C 
ATOM     39  O   UNL     1      -0.511   4.795   5.785  1.00  0.00    -0.268 OA
ATOM     40  N   UNL     1      -0.314   6.955   5.304  1.00  0.00    -0.364 N 
ATOM     41  H   UNL     1      -0.183   7.685   4.590  1.00  0.00     0.160 HD
ATOM     42  H   UNL     1      -0.412   7.216   6.296  1.00  0.00     0.160 HD
ENDBRANCH  28  38
ENDBRANCH  19  20
ENDBRANCH   6  14
TORSDOF 9
