REMARK SMILES Cc1nc(C)c(S(=O)(=O)N(CC(C)C)c2ccc(OC(C)C)c(CN[C@H]3CCC[NH2+][C@H]3c3ccccc3)c2)s1
REMARK SMILES IDX 15 1 16 2 17 3 18 4 23 5 38 6 10 7 7 8 8 9 9 10 6 11 5 12
REMARK SMILES IDX 4 13 3 14 2 15 39 16 1 17 11 18 12 19 13 20 14 21 24 22
REMARK SMILES IDX 25 23 26 25 31 26 27 27 30 28 28 29 29 30 32 33 37 34 33 35
REMARK SMILES IDX 36 36 34 37 35 38 19 39 20 40 21 41 22 42
REMARK H PARENT 25 24 30 31 30 32
REMARK Flexibility Score: inf
ROOT
ATOM      1  C   UNL     1       4.282  -0.642   2.163  1.00  0.00     0.052 A 
ATOM      2  C   UNL     1       2.975  -1.088   2.015  1.00  0.00     0.031 A 
ATOM      3  C   UNL     1       2.019  -0.253   1.472  1.00  0.00     0.049 A 
ATOM      4  C   UNL     1       2.363   1.031   1.075  1.00  0.00     0.124 A 
ATOM      5  C   UNL     1       3.669   1.475   1.217  1.00  0.00     0.010 A 
ATOM      6  C   UNL     1       4.626   0.642   1.765  1.00  0.00     0.035 A 
ENDROOT
BRANCH   1   7
ATOM      7  N   UNL     1       5.252  -1.488   2.713  1.00  0.00    -0.265 N 
BRANCH   7   8
ATOM      8  S   UNL     1       5.590  -2.940   1.993  1.00  0.00     0.275 S 
ATOM      9  O   UNL     1       6.023  -3.815   3.025  1.00  0.00    -0.200 OA
ATOM     10  O   UNL     1       4.486  -3.243   1.151  1.00  0.00    -0.200 OA
BRANCH   8  11
ATOM     11  C   UNL     1       6.975  -2.686   0.934  1.00  0.00     0.163 A 
ATOM     12  C   UNL     1       8.773  -3.392   2.509  1.00  0.00     0.069 C 
ATOM     13  C   UNL     1       8.297  -2.883   1.173  1.00  0.00     0.069 A 
ATOM     14  N   UNL     1       9.153  -2.617   0.209  1.00  0.00    -0.245 NA
ATOM     15  C   UNL     1       8.753  -2.173  -0.960  1.00  0.00     0.091 A 
ATOM     16  S   UNL     1       7.030  -2.106  -0.756  1.00  0.00    -0.105 S 
ATOM     17  C   UNL     1       9.577  -1.818  -2.171  1.00  0.00     0.079 C 
ENDBRANCH   8  11
ENDBRANCH   7   8
BRANCH   7  18
ATOM     18  C   UNL     1       5.968  -1.088   3.927  1.00  0.00     0.138 C 
BRANCH  18  19
ATOM     19  C   UNL     1       5.149  -1.485   5.157  1.00  0.00     0.003 C 
ATOM     20  C   UNL     1       5.963  -1.208   6.423  1.00  0.00     0.009 C 
ATOM     21  C   UNL     1       3.856  -0.667   5.193  1.00  0.00     0.009 C 
ENDBRANCH  18  19
ENDBRANCH   7  18
ENDBRANCH   1   7
BRANCH   5  22
ATOM     22  C   UNL     1       4.043   2.867   0.780  1.00  0.00     0.121 C 
BRANCH  22  23
ATOM     23  N   UNL     1       3.539   3.840   1.758  1.00  0.00    -0.304 NA
ATOM     24  H   UNL     1       2.527   3.701   1.885  1.00  0.00     0.123 HD
BRANCH  23  25
ATOM     25  C   UNL     1       3.786   5.216   1.308  1.00  0.00     0.117 C 
ATOM     26  C   UNL     1       3.948   6.131   2.524  1.00  0.00     0.230 C 
ATOM     27  C   UNL     1       2.601   5.699   0.467  1.00  0.00     0.031 C 
ATOM     28  N   UNL     1       2.716   6.108   3.323  1.00  0.00    -0.339 N 
ATOM     29  C   UNL     1       1.340   5.712   1.335  1.00  0.00     0.063 C 
ATOM     30  C   UNL     1       1.573   6.612   2.551  1.00  0.00     0.261 C 
ATOM     31  H   UNL     1       2.844   6.694   4.160  1.00  0.00     0.346 HD
ATOM     32  H   UNL     1       2.525   5.141   3.622  1.00  0.00     0.346 HD
BRANCH  26  33
ATOM     33  C   UNL     1       5.101   5.647   3.366  1.00  0.00     0.011 A 
ATOM     34  C   UNL     1       6.305   6.326   3.344  1.00  0.00     0.010 A 
ATOM     35  C   UNL     1       4.952   4.529   4.164  1.00  0.00     0.010 A 
ATOM     36  C   UNL     1       7.362   5.883   4.116  1.00  0.00     0.001 A 
ATOM     37  C   UNL     1       6.011   4.083   4.933  1.00  0.00     0.001 A 
ATOM     38  C   UNL     1       7.215   4.761   4.911  1.00  0.00     0.000 A 
ENDBRANCH  26  33
ENDBRANCH  23  25
ENDBRANCH  22  23
ENDBRANCH   5  22
BRANCH   4  39
ATOM     39  O   UNL     1       1.421   1.852   0.540  1.00  0.00    -0.491 OA
BRANCH  39  40
ATOM     40  C   UNL     1       0.080   1.359   0.494  1.00  0.00     0.167 C 
ATOM     41  C   UNL     1      -0.696   2.092  -0.602  1.00  0.00     0.052 C 
ATOM     42  C   UNL     1      -0.597   1.597   1.845  1.00  0.00     0.052 C 
ENDBRANCH  39  40
ENDBRANCH   4  39
TORSDOF 11
