REMARK SMILES COc1cccc(/C=N/c2ccc(C)c(/N=C/c3cccc(OC)c3O)c2)c1O
REMARK SMILES IDX 14 1 13 2 12 3 11 4 10 5 27 6 15 7 16 8 17 9 18 10 25 11
REMARK SMILES IDX 19 12 22 13 20 14 21 15 26 16 23 18 24 19 9 20 8 21 7 22
REMARK SMILES IDX 28 23 6 24 3 25 5 26 4 27 29 28 2 30 1 31
REMARK H PARENT 26 17 29 29
REMARK Flexibility Score: inf
ROOT
ATOM      1  C   UNL     1       5.876   3.427   0.145  1.00  0.00     0.047 C 
ATOM      2  C   UNL     1       5.979   1.924   0.122  1.00  0.00    -0.025 A 
ATOM      3  C   UNL     1       7.218   1.317   0.185  1.00  0.00     0.008 A 
ATOM      4  C   UNL     1       7.322  -0.059   0.166  1.00  0.00     0.029 A 
ATOM      5  C   UNL     1       6.172  -0.849   0.082  1.00  0.00     0.065 A 
ATOM      6  C   UNL     1       4.918  -0.244   0.024  1.00  0.00     0.056 A 
ATOM      7  C   UNL     1       4.821   1.147   0.039  1.00  0.00     0.068 A 
ENDROOT
BRANCH   7   8
ATOM      8  N   UNL     1       3.593   1.750  -0.023  1.00  0.00    -0.256 NA
ATOM      9  C   UNL     1       2.629   1.346   0.756  1.00  0.00     0.123 C 
BRANCH   9  10
ATOM     10  C   UNL     1       1.280   1.914   0.610  1.00  0.00     0.038 A 
ATOM     11  C   UNL     1       1.027   2.888  -0.365  1.00  0.00     0.166 A 
ATOM     12  C   UNL     1       0.242   1.484   1.445  1.00  0.00     0.014 A 
ATOM     13  C   UNL     1      -0.253   3.417  -0.493  1.00  0.00     0.161 A 
ATOM     14  C   UNL     1      -1.021   2.014   1.301  1.00  0.00     0.005 A 
ATOM     15  C   UNL     1      -1.269   2.981   0.341  1.00  0.00     0.050 A 
BRANCH  11  16
ATOM     16  O   UNL     1       2.026   3.314  -1.180  1.00  0.00    -0.504 OA
ATOM     17  H   UNL     1       2.368   2.492  -1.613  1.00  0.00     0.293 HD
ENDBRANCH  11  16
BRANCH  13  18
ATOM     18  O   UNL     1      -0.506   4.364  -1.436  1.00  0.00    -0.493 OA
ATOM     19  C   UNL     1      -1.843   4.863  -1.512  1.00  0.00     0.278 C 
ENDBRANCH  13  18
ENDBRANCH   9  10
ENDBRANCH   7   8
BRANCH   5  20
ATOM     20  N   UNL     1       6.277  -2.214   0.064  1.00  0.00    -0.256 NA
ATOM     21  C   UNL     1       7.169  -2.789  -0.693  1.00  0.00     0.123 C 
BRANCH  21  22
ATOM     22  C   UNL     1       7.282  -4.255  -0.713  1.00  0.00     0.038 A 
ATOM     23  C   UNL     1       6.435  -5.037   0.085  1.00  0.00     0.166 A 
ATOM     24  C   UNL     1       8.238  -4.876  -1.524  1.00  0.00     0.014 A 
ATOM     25  C   UNL     1       6.549  -6.423   0.054  1.00  0.00     0.161 A 
ATOM     26  C   UNL     1       8.340  -6.250  -1.539  1.00  0.00     0.005 A 
ATOM     27  C   UNL     1       7.500  -7.023  -0.754  1.00  0.00     0.050 A 
BRANCH  23  28
ATOM     28  O   UNL     1       5.507  -4.446   0.880  1.00  0.00    -0.504 OA
ATOM     29  H   UNL     1       4.965  -3.890   0.266  1.00  0.00     0.293 HD
ENDBRANCH  23  28
BRANCH  25  30
ATOM     30  O   UNL     1       5.728  -7.189   0.822  1.00  0.00    -0.493 OA
ATOM     31  C   UNL     1       5.904  -8.605   0.745  1.00  0.00     0.278 C 
ENDBRANCH  25  30
ENDBRANCH  21  22
ENDBRANCH   5  20
TORSDOF 8
