REMARK SMILES O=C(Nn1cnc2sc3c(c2c1=O)CCCC3)c1ccc(-n2cnc3ccccc32)cc1
REMARK SMILES IDX 21 1 20 2 19 3 18 4 32 5 31 6 22 7 27 8 26 9 28 10 25 11
REMARK SMILES IDX 29 12 30 13 24 14 23 15 2 16 1 17 3 18 4 20 12 21 5 22 11 23
REMARK SMILES IDX 13 24 6 25 7 26 10 27 8 28 14 29 9 30 15 31 17 32 16 33
REMARK H PARENT 3 19
REMARK Flexibility Score: inf
ROOT
ATOM      1  C   UNL     1       4.736  -9.541  -2.499  1.00  0.00     0.047 A 
ATOM      2  C   UNL     1       3.761  -9.215  -3.437  1.00  0.00     0.027 A 
ATOM      3  C   UNL     1       2.897  -8.170  -3.198  1.00  0.00     0.016 A 
ATOM      4  C   UNL     1       2.999  -7.437  -2.013  1.00  0.00     0.041 A 
ATOM      5  C   UNL     1       3.983  -7.764  -1.076  1.00  0.00     0.016 A 
ATOM      6  C   UNL     1       4.840  -8.814  -1.318  1.00  0.00     0.027 A 
ENDROOT
BRANCH   1   7
ATOM      7  N   UNL     1       5.611 -10.601  -2.744  1.00  0.00    -0.299 N 
ATOM      8  C   UNL     1       9.695 -11.160  -2.619  1.00  0.00     0.002 A 
ATOM      9  C   UNL     1       8.804 -12.136  -2.964  1.00  0.00     0.030 A 
ATOM     10  C   UNL     1       9.255  -9.887  -2.282  1.00  0.00     0.002 A 
ATOM     11  C   UNL     1       7.436 -11.857  -2.979  1.00  0.00     0.089 A 
ATOM     12  C   UNL     1       7.909  -9.589  -2.291  1.00  0.00     0.029 A 
ATOM     13  C   UNL     1       6.990 -10.567  -2.643  1.00  0.00     0.073 A 
ATOM     14  N   UNL     1       6.333 -12.594  -3.270  1.00  0.00    -0.236 NA
ATOM     15  C   UNL     1       5.266 -11.862  -3.134  1.00  0.00     0.205 A 
ENDBRANCH   1   7
BRANCH   4  16
ATOM     16  C   UNL     1       2.073  -6.317  -1.754  1.00  0.00     0.270 C 
ATOM     17  O   UNL     1       1.221  -6.031  -2.572  1.00  0.00    -0.267 OA
ATOM     18  N   UNL     1       2.174  -5.611  -0.610  1.00  0.00    -0.255 N 
ATOM     19  H   UNL     1       2.896  -5.853   0.083  1.00  0.00     0.192 HD
BRANCH  18  20
ATOM     20  N   UNL     1       1.295  -4.547  -0.364  1.00  0.00    -0.205 N 
ATOM     21  C   UNL     1       1.762  -3.282  -0.491  1.00  0.00     0.281 A 
ATOM     22  C   UNL     1       0.019  -4.832  -0.011  1.00  0.00     0.227 A 
ATOM     23  C   UNL     1       0.812  -2.239  -0.226  1.00  0.00     0.082 A 
ATOM     24  O   UNL     1       2.914  -3.045  -0.810  1.00  0.00    -0.267 OA
ATOM     25  N   UNL     1      -0.879  -3.905   0.239  1.00  0.00    -0.225 NA
ATOM     26  C   UNL     1      -0.494  -2.637   0.135  1.00  0.00     0.131 A 
ATOM     27  C   UNL     1       1.051  -0.808  -0.290  1.00  0.00    -0.019 A 
ATOM     28  S   UNL     1      -1.339  -1.106   0.371  1.00  0.00    -0.120 S 
ATOM     29  C   UNL     1       2.406  -0.211  -0.663  1.00  0.00     0.037 C 
ATOM     30  C   UNL     1       0.002  -0.004   0.002  1.00  0.00     0.011 A 
ATOM     31  C   UNL     1       2.206   1.245  -1.084  1.00  0.00     0.005 C 
ATOM     32  C   UNL     1      -0.018   1.493   0.010  1.00  0.00     0.047 C 
ATOM     33  C   UNL     1       1.431   1.999  -0.001  1.00  0.00     0.006 C 
ENDBRANCH  18  20
ENDBRANCH   4  16
TORSDOF 3
