REMARK SMILES CC(C)[C@H]([NH2+][C@H](C)C(=O)Nc1cc(S(=O)(=O)N2CCCCC2)ccc1Cl)c1ccccc1
REMARK SMILES IDX 6 1 7 2 5 3 4 6 2 7 1 8 3 9 27 10 32 11 28 12 31 13 29 14
REMARK SMILES IDX 30 15 8 16 9 17 10 18 11 20 25 21 12 22 24 23 26 24 13 25
REMARK SMILES IDX 23 26 14 27 15 28 16 29 17 30 22 31 18 32 21 33 19 34 20 35
REMARK H PARENT 5 4 5 5 10 19
REMARK Flexibility Score: inf
ROOT
ATOM      1  C   UNL     1       7.477   2.287  -2.865  1.00  0.00     0.270 C 
ATOM      2  C   UNL     1       6.786   2.723  -4.159  1.00  0.00     0.086 C 
ENDROOT
BRANCH   1   3
ATOM      3  N   UNL     1       7.725   3.469  -2.018  1.00  0.00    -0.330 N 
ATOM      4  H   UNL     1       7.698   3.190  -1.027  1.00  0.00     0.347 HD
ATOM      5  H   UNL     1       6.992   4.172  -2.190  1.00  0.00     0.347 HD
BRANCH   3   6
ATOM      6  C   UNL     1       9.045   4.052  -2.325  1.00  0.00     0.216 C 
BRANCH   6   7
ATOM      7  C   UNL     1       9.080   5.501  -1.837  1.00  0.00     0.046 C 
ATOM      8  C   UNL     1      10.403   6.148  -2.253  1.00  0.00     0.014 C 
ATOM      9  C   UNL     1       7.916   6.277  -2.457  1.00  0.00     0.014 C 
ENDBRANCH   6   7
BRANCH   6  10
ATOM     10  C   UNL     1      10.121   3.260  -1.627  1.00  0.00     0.009 A 
ATOM     11  C   UNL     1      11.315   2.999  -2.272  1.00  0.00     0.010 A 
ATOM     12  C   UNL     1       9.915   2.801  -0.340  1.00  0.00     0.010 A 
ATOM     13  C   UNL     1      12.302   2.273  -1.631  1.00  0.00     0.001 A 
ATOM     14  C   UNL     1      10.899   2.071   0.299  1.00  0.00     0.001 A 
ATOM     15  C   UNL     1      12.094   1.808  -0.345  1.00  0.00     0.000 A 
ENDBRANCH   6  10
ENDBRANCH   3   6
ENDBRANCH   1   3
BRANCH   1  16
ATOM     16  C   UNL     1       6.590   1.323  -2.121  1.00  0.00     0.282 C 
ATOM     17  O   UNL     1       6.207   1.591  -1.002  1.00  0.00    -0.268 OA
ATOM     18  N   UNL     1       6.221   0.163  -2.700  1.00  0.00    -0.320 N 
ATOM     19  H   UNL     1       6.614  -0.105  -3.613  1.00  0.00     0.170 HD
BRANCH  18  20
ATOM     20  C   UNL     1       5.303  -0.678  -2.060  1.00  0.00     0.061 A 
ATOM     21  C   UNL     1       5.294  -2.039  -2.338  1.00  0.00     0.064 A 
ATOM     22  C   UNL     1       4.399  -0.154  -1.145  1.00  0.00     0.049 A 
ATOM     23  C   UNL     1       4.386  -2.866  -1.704  1.00  0.00     0.024 A 
ATOM     24  Cl  UNL     1       6.421  -2.700  -3.481  1.00  0.00    -0.082 Cl
ATOM     25  C   UNL     1       3.494  -0.986  -0.516  1.00  0.00     0.084 A 
ATOM     26  C   UNL     1       3.491  -2.341  -0.790  1.00  0.00     0.023 A 
BRANCH  25  27
ATOM     27  S   UNL     1       2.348  -0.321   0.645  1.00  0.00     0.243 S 
ATOM     28  O   UNL     1       2.919   0.884   1.136  1.00  0.00    -0.207 OA
ATOM     29  O   UNL     1       1.970  -1.390   1.502  1.00  0.00    -0.207 OA
BRANCH  27  30
ATOM     30  N   UNL     1       0.990   0.110  -0.200  1.00  0.00    -0.198 NA
ATOM     31  C   UNL     1       0.858   1.458  -0.768  1.00  0.00     0.102 C 
ATOM     32  C   UNL     1      -0.105  -0.850  -0.397  1.00  0.00     0.102 C 
ATOM     33  C   UNL     1       0.540   1.336  -2.261  1.00  0.00     0.017 C 
ATOM     34  C   UNL     1      -0.413  -0.947  -1.894  1.00  0.00     0.017 C 
ATOM     35  C   UNL     1      -0.697   0.453  -2.444  1.00  0.00     0.003 C 
ENDBRANCH  27  30
ENDBRANCH  25  27
ENDBRANCH  18  20
ENDBRANCH   1  16
TORSDOF 8
