REMARK SMILES Nc1c(C(=O)NC[C@H]2CCCO2)sc2nc3c(c(-c4ccco4)c12)CC/C3=C/c1ccco1
REMARK SMILES IDX 4 1 5 2 6 3 3 5 28 6 27 7 16 8 26 9 17 10 15 11 25 12 18 13
REMARK SMILES IDX 14 14 24 15 13 16 2 17 29 18 31 19 32 20 30 21 33 22 19 23
REMARK SMILES IDX 23 24 20 25 22 26 21 27 1 28 7 31 8 32 12 33 9 34 11 35
REMARK SMILES IDX 10 36
REMARK H PARENT 6 4 1 29 1 30
REMARK Flexibility Score: inf
ROOT
ATOM      1  C   UNL     1      -3.462   2.370  -1.515  1.00  0.00     0.263 C 
ATOM      2  O   UNL     1      -3.071   3.091  -2.416  1.00  0.00    -0.268 OA
ATOM      3  N   UNL     1      -2.716   2.218  -0.403  1.00  0.00    -0.349 N 
ATOM      4  H   UNL     1      -3.046   1.608   0.359  1.00  0.00     0.163 HD
ENDROOT
BRANCH   1   5
ATOM      5  C   UNL     1      -4.698   1.693  -1.636  1.00  0.00     0.118 A 
ATOM      6  C   UNL     1     -10.607  -2.223  -0.959  1.00  0.00     0.053 C 
ATOM      7  C   UNL     1     -10.231  -1.440  -1.992  1.00  0.00    -0.018 C 
ATOM      8  C   UNL     1      -8.991  -0.652  -2.071  1.00  0.00     0.072 A 
ATOM      9  C   UNL     1     -11.010  -1.221  -3.266  1.00  0.00     0.043 C 
ATOM     10  C   UNL     1      -8.925   0.040  -3.281  1.00  0.00    -0.010 A 
ATOM     11  N   UNL     1      -7.997  -0.534  -1.183  1.00  0.00    -0.237 NA
ATOM     12  C   UNL     1     -10.157  -0.257  -4.103  1.00  0.00     0.043 C 
ATOM     13  C   UNL     1      -7.831   0.850  -3.564  1.00  0.00     0.035 A 
ATOM     14  C   UNL     1      -6.947   0.218  -1.408  1.00  0.00     0.127 A 
ATOM     15  C   UNL     1      -6.778   0.962  -2.599  1.00  0.00     0.046 A 
ATOM     16  S   UNL     1      -5.479   0.587  -0.475  1.00  0.00    -0.108 S 
ATOM     17  C   UNL     1      -5.596   1.719  -2.686  1.00  0.00     0.066 A 
BRANCH   6  18
ATOM     18  C   UNL     1      -9.687  -2.457   0.154  1.00  0.00     0.126 A 
ATOM     19  C   UNL     1      -8.802  -3.134   2.079  1.00  0.00     0.042 A 
ATOM     20  C   UNL     1      -7.879  -2.421   1.399  1.00  0.00     0.195 A 
ATOM     21  C   UNL     1      -9.965  -3.164   1.290  1.00  0.00     0.050 A 
ATOM     22  O   UNL     1      -8.414  -2.019   0.236  1.00  0.00    -0.465 OA
ENDBRANCH   6  18
BRANCH  13  23
ATOM     23  C   UNL     1      -7.755   1.584  -4.840  1.00  0.00     0.134 A 
ATOM     24  O   UNL     1      -8.526   2.630  -5.198  1.00  0.00    -0.464 OA
ATOM     25  C   UNL     1      -6.899   1.319  -5.865  1.00  0.00     0.051 A 
ATOM     26  C   UNL     1      -8.173   3.044  -6.425  1.00  0.00     0.196 A 
ATOM     27  C   UNL     1      -7.173   2.259  -6.875  1.00  0.00     0.043 A 
ENDBRANCH  13  23
BRANCH  17  28
ATOM     28  N   UNL     1      -5.335   2.486  -3.815  1.00  0.00    -0.397 N 
ATOM     29  H   UNL     1      -6.011   2.498  -4.591  1.00  0.00     0.156 HD
ATOM     30  H   UNL     1      -4.468   3.039  -3.876  1.00  0.00     0.156 HD
ENDBRANCH  17  28
ENDBRANCH   1   5
BRANCH   3  31
ATOM     31  C   UNL     1      -1.436   2.919  -0.277  1.00  0.00     0.148 C 
BRANCH  31  32
ATOM     32  C   UNL     1      -0.796   2.577   1.070  1.00  0.00     0.137 C 
ATOM     33  O   UNL     1      -1.645   3.018   2.143  1.00  0.00    -0.376 OA
ATOM     34  C   UNL     1       0.548   3.316   1.215  1.00  0.00     0.036 C 
ATOM     35  C   UNL     1      -0.779   3.430   3.223  1.00  0.00     0.160 C 
ATOM     36  C   UNL     1       0.377   4.165   2.498  1.00  0.00     0.031 C 
ENDBRANCH  31  32
ENDBRANCH   3  31
TORSDOF 6
