REMARK SMILES O=C(Cc1csc(-c2ccccn2)n1)N[C@@H](c1ccccc1)c1ccc2nc(C(F)(F)F)[nH]c2c1
REMARK SMILES IDX 15 1 2 2 1 3 16 5 17 6 20 7 21 8 19 9 22 10 18 11 23 12
REMARK SMILES IDX 35 13 24 14 34 15 25 16 26 17 33 18 27 19 28 20 29 22 30 23
REMARK SMILES IDX 31 24 32 25 3 26 4 27 14 28 5 29 7 30 6 31 8 32 13 33 9 34
REMARK SMILES IDX 12 35 10 36 11 37
REMARK H PARENT 15 4 33 21
REMARK Flexibility Score: inf
ROOT
ATOM      1  N   UNL     1       3.419   1.736  -0.909  1.00  0.00    -0.345 N 
ATOM      2  C   UNL     1       4.431   1.053  -1.481  1.00  0.00     0.226 C 
ATOM      3  O   UNL     1       4.566  -0.131  -1.257  1.00  0.00    -0.275 OA
ATOM      4  H   UNL     1       3.304   2.741  -1.099  1.00  0.00     0.164 HD
ENDROOT
BRANCH   1   5
ATOM      5  C   UNL     1       2.484   1.047  -0.015  1.00  0.00     0.143 C 
BRANCH   5   6
ATOM      6  C   UNL     1       3.056   1.010   1.378  1.00  0.00    -0.021 A 
ATOM      7  C   UNL     1       4.106   0.940   3.935  1.00  0.00     0.000 A 
ATOM      8  C   UNL     1       4.246   2.077   3.161  1.00  0.00     0.000 A 
ATOM      9  C   UNL     1       3.441  -0.162   3.431  1.00  0.00     0.000 A 
ATOM     10  C   UNL     1       3.725   2.110   1.881  1.00  0.00     0.006 A 
ATOM     11  C   UNL     1       2.917  -0.127   2.152  1.00  0.00     0.006 A 
ENDBRANCH   5   6
BRANCH   5  12
ATOM     12  C   UNL     1       1.170   1.784   0.001  1.00  0.00    -0.019 A 
ATOM     13  C   UNL     1      -0.013   1.076   0.008  1.00  0.00     0.034 A 
ATOM     14  C   UNL     1       1.158   3.172   0.008  1.00  0.00     0.008 A 
ATOM     15  C   UNL     1      -1.222   1.757   0.017  1.00  0.00     0.066 A 
ATOM     16  C   UNL     1      -0.022   3.859   0.022  1.00  0.00     0.031 A 
ATOM     17  C   UNL     1      -1.234   3.162   0.030  1.00  0.00     0.089 A 
ATOM     18  N   UNL     1      -2.546   1.365   0.022  1.00  0.00    -0.334 N 
ATOM     19  N   UNL     1      -2.536   3.547   0.044  1.00  0.00    -0.224 NA
ATOM     20  C   UNL     1      -3.303   2.496   0.031  1.00  0.00     0.213 A 
ATOM     21  H   UNL     1      -2.896   0.397   0.018  1.00  0.00     0.168 HD
BRANCH  20  22
ATOM     22  C   UNL     1      -4.809   2.526   0.039  1.00  0.00     0.449 C 
ATOM     23  F   UNL     1      -5.251   3.812  -0.294  1.00  0.00    -0.163 F 
ATOM     24  F   UNL     1      -5.299   1.608  -0.896  1.00  0.00    -0.163 F 
ATOM     25  F   UNL     1      -5.276   2.188   1.313  1.00  0.00    -0.163 F 
ENDBRANCH  20  22
ENDBRANCH   5  12
ENDBRANCH   1   5
BRANCH   2  26
ATOM     26  C   UNL     1       5.393   1.761  -2.400  1.00  0.00     0.157 C 
BRANCH  26  27
ATOM     27  C   UNL     1       6.421   0.780  -2.903  1.00  0.00     0.061 A 
ATOM     28  N   UNL     1       7.134   0.083  -2.053  1.00  0.00    -0.239 NA
ATOM     29  C   UNL     1       6.614   0.622  -4.241  1.00  0.00     0.091 A 
ATOM     30  C   UNL     1       8.041  -0.790  -2.468  1.00  0.00     0.142 A 
ATOM     31  S   UNL     1       7.902  -0.620  -4.242  1.00  0.00    -0.121 S 
BRANCH  30  32
ATOM     32  C   UNL     1       8.932  -1.665  -1.677  1.00  0.00     0.099 A 
ATOM     33  N   UNL     1       8.875  -1.637  -0.350  1.00  0.00    -0.254 NA
ATOM     34  C   UNL     1       9.823  -2.518  -2.329  1.00  0.00     0.031 A 
ATOM     35  C   UNL     1       9.651  -2.402   0.390  1.00  0.00     0.112 A 
ATOM     36  C   UNL     1      10.654  -3.327  -1.575  1.00  0.00     0.004 A 
ATOM     37  C   UNL     1      10.560  -3.266  -0.191  1.00  0.00     0.020 A 
ENDBRANCH  30  32
ENDBRANCH  26  27
ENDBRANCH   2  26
TORSDOF 7
