REMARK SMILES CCc1ccc2occ(CC(=O)Nc3sc4c(c3C(=O)NC[C@H]3CCCO3)CCC4)c2c1
REMARK SMILES IDX 14 1 18 2 17 3 16 4 15 5 30 6 29 7 28 8 13 9 11 10 12 11
REMARK SMILES IDX 10 13 9 14 3 15 32 16 4 17 31 18 5 19 6 20 7 21 8 22 2 23
REMARK SMILES IDX 1 24 19 25 20 26 21 27 22 29 23 30 27 31 24 32 26 33 25 34
REMARK H PARENT 13 12 21 28
REMARK Flexibility Score: inf
ROOT
ATOM      1  C   UNL     1      -0.343   6.399  -2.780  1.00  0.00     0.108 A 
ATOM      2  C   UNL     1      -1.364   5.665  -2.202  1.00  0.00     0.078 A 
ATOM      3  C   UNL     1      -2.455   6.404  -1.569  1.00  0.00    -0.019 A 
ATOM      4  C   UNL     1      -2.344   7.744  -1.622  1.00  0.00     0.011 A 
ATOM      5  S   UNL     1      -0.826   8.037  -2.497  1.00  0.00    -0.122 S 
ATOM      6  C   UNL     1      -3.498   8.433  -0.947  1.00  0.00     0.047 C 
ATOM      7  C   UNL     1      -4.151   7.337  -0.076  1.00  0.00     0.010 C 
ATOM      8  C   UNL     1      -3.748   6.055  -0.831  1.00  0.00     0.038 C 
ENDROOT
BRANCH   1   9
ATOM      9  N   UNL     1       0.791   5.935  -3.430  1.00  0.00    -0.317 N 
ATOM     10  C   UNL     1       1.684   6.810  -3.934  1.00  0.00     0.229 C 
ATOM     11  O   UNL     1       1.496   8.002  -3.819  1.00  0.00    -0.274 OA
ATOM     12  H   UNL     1       0.950   4.922  -3.528  1.00  0.00     0.170 HD
BRANCH  10  13
ATOM     13  C   UNL     1       2.916   6.306  -4.641  1.00  0.00     0.140 C 
BRANCH  13  14
ATOM     14  C   UNL     1       3.743   7.477  -5.105  1.00  0.00     0.008 A 
ATOM     15  C   UNL     1       6.180   8.996  -2.583  1.00  0.00    -0.047 A 
ATOM     16  C   UNL     1       5.222   8.122  -3.018  1.00  0.00     0.016 A 
ATOM     17  C   UNL     1       6.672   9.977  -3.432  1.00  0.00     0.007 A 
ATOM     18  C   UNL     1       4.734   8.223  -4.320  1.00  0.00     0.024 A 
ATOM     19  C   UNL     1       6.206  10.088  -4.724  1.00  0.00     0.048 A 
ATOM     20  C   UNL     1       5.232   9.210  -5.185  1.00  0.00     0.134 A 
ATOM     21  O   UNL     1       4.594   9.069  -6.364  1.00  0.00    -0.464 OA
ATOM     22  C   UNL     1       3.719   8.050  -6.316  1.00  0.00     0.200 A 
BRANCH  15  23
ATOM     23  C   UNL     1       6.704   8.893  -1.174  1.00  0.00     0.032 C 
ATOM     24  C   UNL     1       5.852   9.762  -0.248  1.00  0.00     0.009 C 
ENDBRANCH  15  23
ENDBRANCH  13  14
ENDBRANCH  10  13
ENDBRANCH   1   9
BRANCH   2  25
ATOM     25  C   UNL     1      -1.349   4.199  -2.219  1.00  0.00     0.254 C 
ATOM     26  O   UNL     1      -1.870   3.596  -3.139  1.00  0.00    -0.269 OA
ATOM     27  N   UNL     1      -0.759   3.519  -1.216  1.00  0.00    -0.349 N 
ATOM     28  H   UNL     1      -0.319   4.029  -0.437  1.00  0.00     0.163 HD
BRANCH  27  29
ATOM     29  C   UNL     1      -0.745   2.054  -1.233  1.00  0.00     0.148 C 
BRANCH  29  30
ATOM     30  C   UNL     1      -0.019   1.537   0.011  1.00  0.00     0.137 C 
ATOM     31  O   UNL     1       1.348   1.983  -0.000  1.00  0.00    -0.376 OA
ATOM     32  C   UNL     1       0.002  -0.004   0.002  1.00  0.00     0.036 C 
ATOM     33  C   UNL     1       2.138   0.935   0.603  1.00  0.00     0.160 C 
ATOM     34  C   UNL     1       1.508  -0.363   0.039  1.00  0.00     0.031 C 
ENDBRANCH  29  30
ENDBRANCH  27  29
ENDBRANCH   2  25
TORSDOF 7
