REMARK SMILES COc1ccc([C@@H]2C(C#N)=C(N)Oc3[nH]nc(C)c32)cc1COc1ccc(C(=O)OCC(C)C)cc1
REMARK SMILES IDX 24 1 25 2 26 3 27 4 35 5 36 6 23 7 22 8 21 9 6 10 20 11 5 12
REMARK SMILES IDX 4 13 3 14 7 15 18 16 17 17 16 18 19 19 15 20 14 21 8 23
REMARK SMILES IDX 13 24 11 25 9 26 10 27 12 28 2 31 1 32 28 33 29 34 30 35
REMARK SMILES IDX 31 36 32 37 33 38 34 39
REMARK H PARENT 15 22 12 29 12 30
REMARK Flexibility Score: inf
ROOT
ATOM      1  C   UNL     1      -3.523   3.502   4.995  1.00  0.00     0.119 A 
ATOM      2  C   UNL     1      -4.193   3.967   3.869  1.00  0.00     0.047 A 
ATOM      3  C   UNL     1      -5.325   4.737   4.008  1.00  0.00     0.019 A 
ATOM      4  C   UNL     1      -5.795   5.062   5.284  1.00  0.00     0.060 A 
ATOM      5  C   UNL     1      -5.116   4.597   6.414  1.00  0.00     0.019 A 
ATOM      6  C   UNL     1      -3.987   3.823   6.266  1.00  0.00     0.047 A 
ENDROOT
BRANCH   1   7
ATOM      7  O   UNL     1      -2.411   2.738   4.854  1.00  0.00    -0.489 OA
BRANCH   7   8
ATOM      8  C   UNL     1      -1.989   2.447   3.520  1.00  0.00     0.269 C 
BRANCH   8   9
ATOM      9  C   UNL     1      -0.747   1.594   3.561  1.00  0.00     0.032 A 
ATOM     10  C   UNL     1       0.936   0.440   4.814  1.00  0.00    -0.034 A 
ATOM     11  C   UNL     1      -0.203   1.222   4.776  1.00  0.00     0.015 A 
ATOM     12  C   UNL     1       1.534   0.027   3.637  1.00  0.00     0.008 A 
ATOM     13  C   UNL     1       0.991   0.392   2.421  1.00  0.00     0.047 A 
ATOM     14  C   UNL     1      -0.149   1.182   2.380  1.00  0.00     0.125 A 
BRANCH  10  15
ATOM     15  C   UNL     1       1.527   0.036   6.140  1.00  0.00     0.103 C 
ATOM     16  C   UNL     1      -0.927  -2.020   6.556  1.00  0.00     0.069 C 
ATOM     17  C   UNL     1       0.533  -2.369   6.417  1.00  0.00     0.067 A 
ATOM     18  N   UNL     1       1.042  -3.578   6.442  1.00  0.00    -0.177 NA
ATOM     19  C   UNL     1       1.573  -1.467   6.239  1.00  0.00     0.050 A 
ATOM     20  N   UNL     1       2.433  -3.477   6.281  1.00  0.00    -0.246 N 
ATOM     21  C   UNL     1       2.739  -2.176   6.158  1.00  0.00     0.221 A 
ATOM     22  H   UNL     1       3.099  -4.262   6.260  1.00  0.00     0.193 HD
ATOM     23  C   UNL     1       2.937   0.559   6.250  1.00  0.00     0.102 C 
ATOM     24  O   UNL     1       3.947  -1.582   5.985  1.00  0.00    -0.422 OA
ATOM     25  C   UNL     1       4.018  -0.248   6.167  1.00  0.00     0.207 C 
BRANCH  23  26
ATOM     26  C   UNL     1       3.138   1.963   6.448  1.00  0.00     0.101 C 
ATOM     27  N   UNL     1       3.298   3.076   6.605  1.00  0.00    -0.193 NA
ENDBRANCH  23  26
BRANCH  25  28
ATOM     28  N   UNL     1       5.261   0.324   6.274  1.00  0.00    -0.369 N 
ATOM     29  H   UNL     1       6.119  -0.243   6.219  1.00  0.00     0.159 HD
ATOM     30  H   UNL     1       5.333   1.342   6.413  1.00  0.00     0.159 HD
ENDBRANCH  25  28
ENDBRANCH  10  15
BRANCH  14  31
ATOM     31  O   UNL     1      -0.682   1.547   1.184  1.00  0.00    -0.496 OA
ATOM     32  C   UNL     1      -0.013   1.086   0.008  1.00  0.00     0.278 C 
ENDBRANCH  14  31
ENDBRANCH   8   9
ENDBRANCH   7   8
ENDBRANCH   1   7
BRANCH   4  33
ATOM     33  C   UNL     1      -7.004   5.893   5.437  1.00  0.00     0.338 C 
ATOM     34  O   UNL     1      -7.411   6.174   6.547  1.00  0.00    -0.246 OA
BRANCH  33  35
ATOM     35  O   UNL     1      -7.657   6.339   4.347  1.00  0.00    -0.462 OA
BRANCH  35  36
ATOM     36  C   UNL     1      -8.839   7.152   4.573  1.00  0.00     0.236 C 
BRANCH  36  37
ATOM     37  C   UNL     1      -9.441   7.563   3.228  1.00  0.00     0.021 C 
ATOM     38  C   UNL     1     -10.754   8.312   3.464  1.00  0.00     0.011 C 
ATOM     39  C   UNL     1      -8.460   8.473   2.487  1.00  0.00     0.011 C 
ENDBRANCH  36  37
ENDBRANCH  35  36
ENDBRANCH  33  35
ENDBRANCH   4  33
TORSDOF 11
