REMARK SMILES O=C1/C(=C/c2ccccc2[S-])N[C@@H](c2ccccc2)N1c1c(Cl)cc([N+](=O)[O-])cc1Cl
REMARK SMILES IDX 13 1 12 2 3 3 4 4 2 5 1 6 20 7 14 9 17 10 18 11 16 12 19 13
REMARK SMILES IDX 15 14 21 15 22 16 30 17 24 18 23 19 29 20 31 21 25 22 26 23
REMARK SMILES IDX 28 24 27 25 5 26 10 27 6 28 9 29 11 30 7 31 8 32
REMARK H PARENT 12 8
REMARK Flexibility Score: inf
ROOT
ATOM      1  C   UNL     1       3.006   5.689  -0.547  1.00  0.00     0.216 C 
ATOM      2  N   UNL     1       2.198   4.463  -0.536  1.00  0.00    -0.357 N 
ATOM      3  C   UNL     1       3.035   3.433  -0.090  1.00  0.00     0.103 C 
ATOM      4  C   UNL     1       2.681   2.135   0.066  1.00  0.00     0.038 C 
ATOM      5  C   UNL     1       4.357   4.001   0.186  1.00  0.00     0.276 C 
ATOM      6  O   UNL     1       5.319   3.376   0.594  1.00  0.00    -0.267 OA
ATOM      7  N   UNL     1       4.347   5.319  -0.085  1.00  0.00    -0.279 N 
ATOM      8  H   UNL     1       1.207   4.378  -0.806  1.00  0.00     0.163 HD
ENDROOT
BRANCH   1   9
ATOM      9  C   UNL     1       2.404   6.710   0.385  1.00  0.00    -0.005 A 
ATOM     10  C   UNL     1       1.301   8.582   2.094  1.00  0.00     0.000 A 
ATOM     11  C   UNL     1       1.570   7.304   2.549  1.00  0.00     0.000 A 
ATOM     12  C   UNL     1       1.584   8.923   0.785  1.00  0.00     0.000 A 
ATOM     13  C   UNL     1       2.117   6.367   1.693  1.00  0.00     0.008 A 
ATOM     14  C   UNL     1       2.135   7.987  -0.070  1.00  0.00     0.008 A 
ENDBRANCH   1   9
BRANCH   7  15
ATOM     15  C   UNL     1       5.432   6.190   0.055  1.00  0.00     0.084 A 
ATOM     16  C   UNL     1       5.774   6.680   1.310  1.00  0.00     0.073 A 
ATOM     17  C   UNL     1       6.175   6.563  -1.059  1.00  0.00     0.073 A 
ATOM     18  C   UNL     1       6.847   7.541   1.445  1.00  0.00     0.108 A 
ATOM     19  Cl  UNL     1       4.855   6.212   2.706  1.00  0.00    -0.082 Cl
ATOM     20  C   UNL     1       7.242   7.429  -0.917  1.00  0.00     0.108 A 
ATOM     21  Cl  UNL     1       5.757   5.948  -2.627  1.00  0.00    -0.082 Cl
ATOM     22  C   UNL     1       7.580   7.915   0.333  1.00  0.00     0.272 A 
BRANCH  22  23
ATOM     23  N   UNL     1       8.728   8.837   0.482  1.00  0.00     0.062 N 
ATOM     24  O   UNL     1       9.026   9.266   1.582  1.00  0.00    -0.258 OA
ATOM     25  O   UNL     1       9.374   9.168  -0.496  1.00  0.00    -0.258 OA
ENDBRANCH  22  23
ENDBRANCH   7  15
BRANCH   4  26
ATOM     26  C   UNL     1       1.359   1.675  -0.379  1.00  0.00    -0.043 A 
ATOM     27  C   UNL     1       0.733   0.592   0.263  1.00  0.00    -0.168 A 
ATOM     28  C   UNL     1       0.715   2.312  -1.445  1.00  0.00     0.006 A 
ATOM     29  C   UNL     1      -0.517   0.168  -0.168  1.00  0.00    -0.020 A 
ATOM     30  S   UNL     1       1.530  -0.222   1.607  1.00  0.00    -0.779 S 
ATOM     31  C   UNL     1      -0.525   1.875  -1.858  1.00  0.00     0.001 A 
ATOM     32  C   UNL     1      -1.139   0.808  -1.222  1.00  0.00    -0.001 A 
ENDBRANCH   4  26
TORSDOF 4
