REMARK SMILES COc1ccc(-c2n[nH]c3c2[C@@H](c2ccc(OC4CCCC4)c(OC)c2)C(C#N)=C(N)O3)cc1OC
REMARK SMILES IDX 7 1 11 2 10 3 9 4 8 5 32 6 30 7 27 8 12 9 6 11 3 12 34 13
REMARK SMILES IDX 4 14 33 15 5 16 2 17 1 18 35 19 36 20 13 21 26 22 14 23
REMARK SMILES IDX 23 24 15 25 16 26 24 27 25 28 17 29 18 30 22 31 19 32 21 33
REMARK SMILES IDX 20 34 28 35 29 36 31 37
REMARK H PARENT 9 10 31 38 31 39
REMARK Flexibility Score: inf
ROOT
ATOM      1  C   UNL     1       0.733  -2.655  -2.567  1.00  0.00     0.100 A 
ATOM      2  C   UNL     1       0.373  -2.525  -1.223  1.00  0.00     0.055 A 
ATOM      3  C   UNL     1      -0.831  -3.145  -1.046  1.00  0.00     0.222 A 
ATOM      4  N   UNL     1      -1.214  -3.645  -2.240  1.00  0.00    -0.246 N 
ATOM      5  N   UNL     1      -0.222  -3.328  -3.181  1.00  0.00    -0.172 NA
ATOM      6  O   UNL     1      -1.457  -3.199   0.156  1.00  0.00    -0.422 OA
ATOM      7  C   UNL     1      -0.742  -2.865   1.249  1.00  0.00     0.207 C 
ATOM      8  C   UNL     1       0.456  -2.240   1.201  1.00  0.00     0.102 C 
ATOM      9  C   UNL     1       1.111  -1.846  -0.099  1.00  0.00     0.104 C 
ATOM     10  H   UNL     1      -2.082  -4.167  -2.427  1.00  0.00     0.193 HD
ENDROOT
BRANCH   1  11
ATOM     11  C   UNL     1       1.970  -2.127  -3.195  1.00  0.00     0.006 A 
ATOM     12  C   UNL     1       4.279  -1.140  -4.371  1.00  0.00     0.160 A 
ATOM     13  C   UNL     1       4.343  -1.752  -3.123  1.00  0.00     0.161 A 
ATOM     14  C   UNL     1       3.063  -1.022  -5.027  1.00  0.00     0.051 A 
ATOM     15  C   UNL     1       3.192  -2.245  -2.535  1.00  0.00     0.060 A 
ATOM     16  C   UNL     1       1.913  -1.518  -4.447  1.00  0.00     0.014 A 
BRANCH  12  17
ATOM     17  O   UNL     1       5.411  -0.655  -4.949  1.00  0.00    -0.493 OA
ATOM     18  C   UNL     1       5.272  -0.039  -6.230  1.00  0.00     0.278 C 
ENDBRANCH  12  17
BRANCH  13  19
ATOM     19  O   UNL     1       5.537  -1.867  -2.481  1.00  0.00    -0.493 OA
ATOM     20  C   UNL     1       5.528  -2.507  -1.204  1.00  0.00     0.278 C 
ENDBRANCH  13  19
ENDBRANCH   1  11
BRANCH   9  21
ATOM     21  C   UNL     1       1.037  -0.350  -0.273  1.00  0.00    -0.031 A 
ATOM     22  C   UNL     1       2.198   0.400  -0.291  1.00  0.00     0.055 A 
ATOM     23  C   UNL     1      -0.191   0.268  -0.414  1.00  0.00     0.009 A 
ATOM     24  C   UNL     1       2.132   1.775  -0.451  1.00  0.00     0.161 A 
ATOM     25  C   UNL     1      -0.264   1.639  -0.574  1.00  0.00     0.051 A 
ATOM     26  C   UNL     1       0.895   2.397  -0.593  1.00  0.00     0.161 A 
BRANCH  24  27
ATOM     27  O   UNL     1       3.273   2.514  -0.469  1.00  0.00    -0.493 OA
ATOM     28  C   UNL     1       4.506   1.808  -0.317  1.00  0.00     0.278 C 
ENDBRANCH  24  27
BRANCH  26  29
ATOM     29  O   UNL     1       0.825   3.746  -0.750  1.00  0.00    -0.487 OA
BRANCH  29  30
ATOM     30  C   UNL     1      -0.478   4.331  -0.763  1.00  0.00     0.173 C 
ATOM     31  C   UNL     1      -0.397   5.810  -0.347  1.00  0.00     0.045 C 
ATOM     32  C   UNL     1      -1.054   4.306  -2.194  1.00  0.00     0.045 C 
ATOM     33  C   UNL     1      -0.926   6.633  -1.539  1.00  0.00     0.004 C 
ATOM     34  C   UNL     1      -1.830   5.642  -2.314  1.00  0.00     0.004 C 
ENDBRANCH  29  30
ENDBRANCH  26  29
ENDBRANCH   9  21
BRANCH   8  35
ATOM     35  C   UNL     1       1.126  -1.939   2.431  1.00  0.00     0.101 C 
ATOM     36  N   UNL     1       1.658  -1.701   3.406  1.00  0.00    -0.193 NA
ENDBRANCH   8  35
BRANCH   7  37
ATOM     37  N   UNL     1      -1.259  -3.178   2.481  1.00  0.00    -0.369 N 
ATOM     38  H   UNL     1      -2.168  -3.654   2.576  1.00  0.00     0.159 HD
ATOM     39  H   UNL     1      -0.725  -2.929   3.326  1.00  0.00     0.159 HD
ENDBRANCH   7  37
TORSDOF 9
