REMARK SMILES COC(=O)C1=C(N)Oc2n[nH]c(-c3ccccc3)c2[C@]12C(=O)N(Cc1cccc(F)c1)c1ccccc12
REMARK SMILES IDX 5 1 6 2 8 3 9 4 19 5 12 6 11 7 10 8 20 9 37 10 36 11 35 12
REMARK SMILES IDX 34 13 33 14 32 15 23 16 21 17 22 18 3 20 4 21 2 22 1 23 7 24
REMARK SMILES IDX 13 27 18 28 14 29 17 30 15 31 16 32 24 33 25 34 31 35 26 36
REMARK SMILES IDX 29 37 27 38 28 39 30 40
REMARK H PARENT 11 19 7 25 7 26
REMARK Flexibility Score: inf
ROOT
ATOM      1  C   UNL     1       1.409  -1.964   0.043  1.00  0.00     0.122 C 
ATOM      2  C   UNL     1       2.086  -2.396   1.135  1.00  0.00     0.205 C 
ATOM      3  O   UNL     1       1.966  -3.627   1.665  1.00  0.00    -0.421 OA
ATOM      4  C   UNL     1       1.337  -4.579   0.924  1.00  0.00     0.245 A 
ATOM      5  C   UNL     1       0.591  -4.254  -0.228  1.00  0.00     0.067 A 
ATOM      6  C   UNL     1       0.092  -5.403  -0.743  1.00  0.00     0.074 A 
ATOM      7  N   UNL     1       0.512  -6.424   0.063  1.00  0.00    -0.274 N 
ATOM      8  N   UNL     1       1.287  -5.869   1.093  1.00  0.00    -0.136 NA
ATOM      9  C   UNL     1       0.444  -2.837  -0.708  1.00  0.00     0.146 C 
ATOM     10  C   UNL     1      -0.962  -2.353  -0.554  1.00  0.00     0.001 A 
ATOM     11  C   UNL     1      -1.761  -2.199   0.558  1.00  0.00     0.008 A 
ATOM     12  C   UNL     1      -3.048  -1.714   0.349  1.00  0.00     0.001 A 
ATOM     13  C   UNL     1      -3.502  -1.402  -0.916  1.00  0.00     0.002 A 
ATOM     14  C   UNL     1      -2.705  -1.555  -2.040  1.00  0.00     0.027 A 
ATOM     15  C   UNL     1      -1.411  -2.041  -1.844  1.00  0.00     0.049 A 
ATOM     16  N   UNL     1      -0.415  -2.287  -2.773  1.00  0.00    -0.306 N 
ATOM     17  C   UNL     1       0.711  -2.757  -2.195  1.00  0.00     0.247 C 
ATOM     18  O   UNL     1       1.741  -3.057  -2.760  1.00  0.00    -0.273 OA
ATOM     19  H   UNL     1       0.298  -7.423  -0.063  1.00  0.00     0.190 HD
ENDROOT
BRANCH   1  20
ATOM     20  C   UNL     1       1.623  -0.653  -0.407  1.00  0.00     0.340 C 
ATOM     21  O   UNL     1       2.321   0.107   0.240  1.00  0.00    -0.246 OA
BRANCH  20  22
ATOM     22  O   UNL     1       1.054  -0.233  -1.558  1.00  0.00    -0.465 OA
ATOM     23  C   UNL     1       1.314   1.115  -1.956  1.00  0.00     0.282 C 
ENDBRANCH  20  22
ENDBRANCH   1  20
BRANCH   2  24
ATOM     24  N   UNL     1       2.945  -1.519   1.742  1.00  0.00    -0.369 N 
ATOM     25  H   UNL     1       3.079  -0.562   1.388  1.00  0.00     0.159 HD
ATOM     26  H   UNL     1       3.468  -1.830   2.574  1.00  0.00     0.159 HD
ENDBRANCH   2  24
BRANCH   6  27
ATOM     27  C   UNL     1      -0.751  -5.530  -1.952  1.00  0.00     0.000 A 
ATOM     28  C   UNL     1      -0.379  -6.402  -2.977  1.00  0.00     0.010 A 
ATOM     29  C   UNL     1      -1.923  -4.783  -2.071  1.00  0.00     0.010 A 
ATOM     30  C   UNL     1      -1.169  -6.515  -4.102  1.00  0.00     0.001 A 
ATOM     31  C   UNL     1      -2.701  -4.902  -3.204  1.00  0.00     0.001 A 
ATOM     32  C   UNL     1      -2.328  -5.768  -4.216  1.00  0.00     0.000 A 
ENDBRANCH   6  27
BRANCH  16  33
ATOM     33  C   UNL     1      -0.565  -2.064  -4.213  1.00  0.00     0.161 C 
BRANCH  33  34
ATOM     34  C   UNL     1      -0.138  -0.659  -4.551  1.00  0.00    -0.025 A 
ATOM     35  C   UNL     1       1.174  -0.402  -4.899  1.00  0.00     0.044 A 
ATOM     36  C   UNL     1      -1.060   0.370  -4.519  1.00  0.00     0.006 A 
ATOM     37  C   UNL     1       1.567   0.889  -5.211  1.00  0.00     0.123 A 
ATOM     38  C   UNL     1      -0.668   1.660  -4.824  1.00  0.00     0.003 A 
ATOM     39  C   UNL     1       0.644   1.920  -5.173  1.00  0.00     0.039 A 
ATOM     40  F   UNL     1       2.849   1.142  -5.552  1.00  0.00    -0.207 F 
ENDBRANCH  33  34
ENDBRANCH  16  33
TORSDOF 6
