REMARK SMILES Cc1ccc(SCC(=O)N2CCN(Cc3nc(=O)c4c5c(sc4[nH]3)CCCC5)CC2)cc1
REMARK SMILES IDX 8 1 9 2 10 3 11 4 12 5 13 6 29 7 30 8 7 9 6 10 5 11 1 12
REMARK SMILES IDX 2 13 32 14 3 15 31 16 4 17 14 18 15 19 24 20 16 21 23 22
REMARK SMILES IDX 17 24 19 25 22 26 18 27 20 28 21 29 28 30 25 31 27 32 26 33
REMARK H PARENT 24 23
REMARK Flexibility Score: inf
ROOT
ATOM      1  C   UNL     1      -3.951  11.742  -3.988  1.00  0.00     0.233 C 
ATOM      2  O   UNL     1      -3.860  12.616  -4.824  1.00  0.00    -0.274 OA
ATOM      3  N   UNL     1      -3.114  10.687  -4.021  1.00  0.00    -0.339 N 
ATOM      4  C   UNL     1      -2.081  10.576  -5.063  1.00  0.00     0.135 C 
ATOM      5  C   UNL     1      -2.190   9.191  -5.711  1.00  0.00     0.106 C 
ATOM      6  N   UNL     1      -2.133   8.160  -4.667  1.00  0.00    -0.292 NA
ATOM      7  C   UNL     1      -3.272   8.270  -3.746  1.00  0.00     0.106 C 
ATOM      8  C   UNL     1      -3.207   9.617  -3.017  1.00  0.00     0.135 C 
ENDROOT
BRANCH   1   9
ATOM      9  C   UNL     1      -5.002  11.836  -2.912  1.00  0.00     0.175 C 
BRANCH   9  10
ATOM     10  S   UNL     1      -5.963  13.358  -3.136  1.00  0.00    -0.116 SA
BRANCH  10  11
ATOM     11  C   UNL     1      -7.133  13.322  -1.819  1.00  0.00     0.008 A 
ATOM     12  C   UNL     1      -9.972  13.232   1.374  1.00  0.00     0.044 C 
ATOM     13  C   UNL     1      -8.971  13.264   0.248  1.00  0.00    -0.051 A 
ATOM     14  C   UNL     1      -8.057  12.236   0.109  1.00  0.00     0.004 A 
ATOM     15  C   UNL     1      -8.969  14.321  -0.643  1.00  0.00     0.004 A 
ATOM     16  C   UNL     1      -7.142  12.258  -0.925  1.00  0.00     0.015 A 
ATOM     17  C   UNL     1      -8.053  14.353  -1.676  1.00  0.00     0.015 A 
ENDBRANCH  10  11
ENDBRANCH   9  10
ENDBRANCH   1   9
BRANCH   6  18
ATOM     18  C   UNL     1      -2.062   6.816  -5.257  1.00  0.00     0.160 C 
BRANCH  18  19
ATOM     19  C   UNL     1      -1.759   5.809  -4.178  1.00  0.00     0.125 A 
ATOM     20  N   UNL     1      -1.610   6.237  -2.944  1.00  0.00    -0.334 N 
ATOM     21  N   UNL     1      -1.651   4.504  -4.524  1.00  0.00    -0.194 NA
ATOM     22  C   UNL     1      -1.343   5.329  -2.010  1.00  0.00     0.107 A 
ATOM     23  H   UNL     1      -1.696   7.236  -2.709  1.00  0.00     0.169 HD
ATOM     24  C   UNL     1      -1.382   3.522  -3.632  1.00  0.00     0.282 A 
ATOM     25  C   UNL     1      -1.213   3.947  -2.271  1.00  0.00     0.080 A 
ATOM     26  S   UNL     1      -1.074   5.446  -0.270  1.00  0.00    -0.122 S 
ATOM     27  O   UNL     1      -1.288   2.352  -3.962  1.00  0.00    -0.267 OA
ATOM     28  C   UNL     1      -0.921   3.104  -1.126  1.00  0.00    -0.019 A 
ATOM     29  C   UNL     1      -0.803   3.725   0.071  1.00  0.00     0.011 A 
ATOM     30  C   UNL     1      -0.749   1.591  -1.233  1.00  0.00     0.037 C 
ATOM     31  C   UNL     1      -0.510   3.093   1.397  1.00  0.00     0.047 C 
ATOM     32  C   UNL     1      -0.013   1.086   0.008  1.00  0.00     0.005 C 
ATOM     33  C   UNL     1      -0.726   1.578   1.270  1.00  0.00     0.006 C 
ENDBRANCH  18  19
ENDBRANCH   6  18
TORSDOF 5
