REMARK SMILES CC(C)c1nc2sc3c(NCCO)ncnc3c2c2c1COC(C)(C)C2
REMARK SMILES IDX 11 1 10 2 9 4 4 5 5 6 20 7 6 8 21 9 19 10 18 11 7 12 22 13
REMARK SMILES IDX 26 14 17 15 8 16 23 17 16 18 24 19 25 20 15 21 14 22 2 23
REMARK SMILES IDX 1 24 3 25 12 26 13 27
REMARK H PARENT 10 3 13 28
REMARK Flexibility Score: inf
ROOT
ATOM      1  C   UNL     1       1.248   1.716  -0.001  1.00  0.00     0.142 C 
ENDROOT
BRANCH   1   2
ATOM      2  N   UNL     1      -0.011   0.966   0.007  1.00  0.00    -0.366 N 
ATOM      3  H   UNL     1       0.003  -0.064   0.006  1.00  0.00     0.162 HD
BRANCH   2   4
ATOM      4  C   UNL     1      -1.221   1.643   0.017  1.00  0.00     0.147 A 
ATOM      5  C   UNL     1      -6.883  -1.081   0.030  1.00  0.00     0.050 A 
ATOM      6  N   UNL     1      -5.624  -1.470   0.023  1.00  0.00    -0.241 NA
ATOM      7  C   UNL     1      -7.205   0.271   0.034  1.00  0.00     0.004 A 
ATOM      8  C   UNL     1      -4.636  -0.601   0.022  1.00  0.00     0.126 A 
ATOM      9  C   UNL     1      -8.658   0.673   0.035  1.00  0.00     0.198 C 
ATOM     10  C   UNL     1      -6.204   1.211   0.036  1.00  0.00    -0.025 A 
ATOM     11  C   UNL     1      -4.856   0.788   0.029  1.00  0.00     0.042 A 
ATOM     12  S   UNL     1      -2.868  -0.765   0.013  1.00  0.00    -0.110 S 
ATOM     13  O   UNL     1      -8.788   2.044   0.410  1.00  0.00    -0.370 OA
ATOM     14  C   UNL     1      -6.499   2.686   0.050  1.00  0.00     0.071 C 
ATOM     15  C   UNL     1      -3.647   1.632   0.028  1.00  0.00     0.096 A 
ATOM     16  C   UNL     1      -2.424   0.950   0.019  1.00  0.00     0.098 A 
ATOM     17  C   UNL     1      -7.956   2.923  -0.355  1.00  0.00     0.067 C 
ATOM     18  N   UNL     1      -3.573   2.982   0.035  1.00  0.00    -0.235 NA
ATOM     19  C   UNL     1      -8.340   4.376  -0.067  1.00  0.00     0.042 C 
ATOM     20  C   UNL     1      -8.130   2.627  -1.846  1.00  0.00     0.042 C 
ATOM     21  C   UNL     1      -2.420   3.603   0.033  1.00  0.00     0.224 A 
ATOM     22  N   UNL     1      -1.259   2.974   0.030  1.00  0.00    -0.218 NA
BRANCH   5  23
ATOM     23  C   UNL     1      -7.983  -2.111   0.032  1.00  0.00     0.032 C 
ATOM     24  C   UNL     1      -7.868  -2.983  -1.220  1.00  0.00     0.014 C 
ATOM     25  C   UNL     1      -7.857  -2.989   1.278  1.00  0.00     0.014 C 
ENDBRANCH   5  23
ENDBRANCH   2   4
ENDBRANCH   1   2
BRANCH   1  26
ATOM     26  C   UNL     1       2.424   0.737  -0.017  1.00  0.00     0.177 C 
BRANCH  26  27
ATOM     27  O   UNL     1       2.414   0.001  -1.242  1.00  0.00    -0.395 OA
ATOM     28  H   UNL     1       2.496   0.627  -2.005  1.00  0.00     0.210 HD
ENDBRANCH  26  27
ENDBRANCH   1  26
TORSDOF 5
