REMARK SMILES Cn1cc(C(=O)NNC(=O)c2c(-n3cccc3)sc3c2CCSC3)c2ccccc21
REMARK SMILES IDX 8 1 9 2 10 3 7 5 5 6 6 7 4 9 1 10 2 11 30 12 3 13 25 14
REMARK SMILES IDX 29 15 26 16 28 17 27 18 11 19 12 20 20 21 18 22 21 23 19 24
REMARK SMILES IDX 22 25 24 26 23 27 13 28 17 29 14 30 16 31 15 32
REMARK H PARENT 8 4 7 8
REMARK Flexibility Score: inf
ROOT
ATOM      1  N   UNL     1      -0.011   0.966   0.007  1.00  0.00    -0.263 N 
ATOM      2  C   UNL     1      -1.187   1.624   0.017  1.00  0.00     0.273 C 
ATOM      3  O   UNL     1      -1.204   2.841   0.023  1.00  0.00    -0.267 OA
ATOM      4  H   UNL     1       0.003  -0.064   0.006  1.00  0.00     0.191 HD
ENDROOT
BRANCH   1   5
ATOM      5  N   UNL     1       1.193   1.683  -0.000  1.00  0.00    -0.263 N 
ATOM      6  C   UNL     1       2.369   1.025  -0.015  1.00  0.00     0.271 C 
ATOM      7  O   UNL     1       2.385  -0.192  -0.022  1.00  0.00    -0.267 OA
ATOM      8  H   UNL     1       1.179   2.713   0.005  1.00  0.00     0.191 HD
BRANCH   6   9
ATOM      9  C   UNL     1       3.631   1.777  -0.023  1.00  0.00     0.067 A 
ATOM     10  C   UNL     1       5.614   4.824  -0.025  1.00  0.00     0.149 C 
ATOM     11  N   UNL     1       5.089   3.456  -0.028  1.00  0.00    -0.350 N 
ATOM     12  C   UNL     1       5.865   2.315  -0.042  1.00  0.00     0.049 A 
ATOM     13  C   UNL     1       3.773   3.133  -0.017  1.00  0.00     0.100 A 
ATOM     14  C   UNL     1       4.994   1.214  -0.033  1.00  0.00     0.012 A 
ATOM     15  C   UNL     1       7.238   2.098  -0.056  1.00  0.00     0.027 A 
ATOM     16  C   UNL     1       5.505  -0.081  -0.051  1.00  0.00     0.011 A 
ATOM     17  C   UNL     1       7.731   0.811  -0.068  1.00  0.00     0.002 A 
ATOM     18  C   UNL     1       6.869  -0.276  -0.065  1.00  0.00     0.001 A 
ENDBRANCH   6   9
ENDBRANCH   1   5
BRANCH   2  19
ATOM     19  C   UNL     1      -2.448   0.873   0.018  1.00  0.00     0.080 A 
ATOM     20  C   UNL     1      -3.050   0.498   1.204  1.00  0.00     0.113 A 
ATOM     21  C   UNL     1      -3.101   0.494  -1.236  1.00  0.00    -0.017 A 
ATOM     22  S   UNL     1      -4.468  -0.339   0.672  1.00  0.00    -0.121 S 
ATOM     23  C   UNL     1      -2.484   0.894  -2.567  1.00  0.00     0.048 C 
ATOM     24  C   UNL     1      -4.244  -0.196  -1.085  1.00  0.00     0.021 A 
ATOM     25  C   UNL     1      -2.968   0.007  -3.707  1.00  0.00     0.074 C 
ATOM     26  C   UNL     1      -5.177  -0.759  -2.122  1.00  0.00     0.116 C 
ATOM     27  S   UNL     1      -4.788   0.015  -3.722  1.00  0.00    -0.156 SA
BRANCH  20  28
ATOM     28  N   UNL     1      -2.622   0.736   2.506  1.00  0.00    -0.315 N 
ATOM     29  C   UNL     1      -3.267   0.336   3.643  1.00  0.00     0.092 A 
ATOM     30  C   UNL     1      -1.484   1.404   2.861  1.00  0.00     0.092 A 
ATOM     31  C   UNL     1      -2.546   0.751   4.703  1.00  0.00     0.020 A 
ATOM     32  C   UNL     1      -1.415   1.432   4.207  1.00  0.00     0.020 A 
ENDBRANCH  20  28
ENDBRANCH   2  19
TORSDOF 4
