REMARK SMILES Cc1ccc(-c2nnc(Cl)c3ccccc23)cc1S(=O)(=O)NCCO
REMARK SMILES IDX 22 1 19 3 20 4 21 5 18 6 1 7 2 8 3 9 17 10 4 11 5 12 6 13
REMARK SMILES IDX 7 14 16 15 8 16 11 17 15 18 9 19 12 20 14 21 10 22 13 23
REMARK SMILES IDX 23 24 24 25 25 26
REMARK H PARENT 22 2 25 27
REMARK Flexibility Score: inf
ROOT
ATOM      1  N   UNL     1      -3.418   9.335   2.530  1.00  0.00    -0.209 NA
ATOM      2  H   UNL     1      -4.314   9.809   2.714  1.00  0.00     0.141 HD
ENDROOT
BRANCH   1   3
ATOM      3  S   UNL     1      -2.720   9.438   1.032  1.00  0.00     0.240 S 
ATOM      4  O   UNL     1      -1.363   9.804   1.240  1.00  0.00    -0.207 OA
ATOM      5  O   UNL     1      -3.602  10.206   0.225  1.00  0.00    -0.207 OA
BRANCH   3   6
ATOM      6  C   UNL     1      -2.704   7.812   0.353  1.00  0.00     0.086 A 
ATOM      7  C   UNL     1      -5.205   7.859   0.356  1.00  0.00     0.046 C 
ATOM      8  C   UNL     1      -3.896   7.167   0.075  1.00  0.00    -0.031 A 
ATOM      9  C   UNL     1      -3.891   5.891  -0.458  1.00  0.00     0.005 A 
ATOM     10  C   UNL     1      -1.501   7.184   0.098  1.00  0.00     0.032 A 
ATOM     11  C   UNL     1      -2.696   5.255  -0.722  1.00  0.00     0.011 A 
ATOM     12  C   UNL     1      -1.490   5.897  -0.440  1.00  0.00     0.004 A 
BRANCH  12  13
ATOM     13  C   UNL     1      -0.203   5.218  -0.716  1.00  0.00     0.101 A 
ATOM     14  N   UNL     1      -0.017   4.562  -1.849  1.00  0.00    -0.148 NA
ATOM     15  C   UNL     1       0.851   5.259   0.229  1.00  0.00     0.013 A 
ATOM     16  N   UNL     1       1.075   3.958  -2.139  1.00  0.00    -0.137 NA
ATOM     17  C   UNL     1       2.057   4.587  -0.101  1.00  0.00     0.023 A 
ATOM     18  C   UNL     1       0.744   5.926   1.453  1.00  0.00     0.011 A 
ATOM     19  C   UNL     1       2.121   3.927  -1.342  1.00  0.00     0.159 A 
ATOM     20  C   UNL     1       3.125   4.601   0.806  1.00  0.00     0.012 A 
ATOM     21  C   UNL     1       1.801   5.917   2.315  1.00  0.00     0.001 A 
ATOM     22  Cl  UNL     1       3.563   3.083  -1.816  1.00  0.00    -0.060 Cl
ATOM     23  C   UNL     1       2.987   5.262   1.990  1.00  0.00     0.001 A 
ENDBRANCH  12  13
ENDBRANCH   3   6
ENDBRANCH   1   3
BRANCH   1  24
ATOM     24  C   UNL     1      -2.761   8.570   3.593  1.00  0.00     0.127 C 
BRANCH  24  25
ATOM     25  C   UNL     1      -3.404   8.912   4.939  1.00  0.00     0.172 C 
BRANCH  25  26
ATOM     26  O   UNL     1      -4.764   8.473   4.942  1.00  0.00    -0.395 OA
ATOM     27  H   UNL     1      -4.796   7.494   4.801  1.00  0.00     0.210 HD
ENDBRANCH  25  26
ENDBRANCH  24  25
ENDBRANCH   1  24
TORSDOF 6
