REMARK SMILES COC(=O)[C@@H]1Cc2c([nH]c3ccccc23)[C@H]2C[C@H]([NH2+]C(C)C)C[C@@H](c3ccc(C(F)(F)F)cc3)N21
REMARK SMILES IDX 18 1 23 2 24 3 5 4 6 5 7 6 15 7 14 8 13 9 12 10 11 11 10 12
REMARK SMILES IDX 9 13 8 14 16 15 17 16 35 17 19 19 20 22 21 23 22 24 25 25
REMARK SMILES IDX 34 26 26 27 33 28 27 29 28 30 29 31 30 32 31 33 32 34 3 35
REMARK SMILES IDX 4 36 2 37 1 38
REMARK H PARENT 9 18 19 20 19 21
REMARK Flexibility Score: inf
ROOT
ATOM      1  C   UNL     1       3.918   2.619   1.306  1.00  0.00     0.186 C 
ATOM      2  C   UNL     1       3.362   3.191  -0.001  1.00  0.00     0.089 C 
ATOM      3  C   UNL     1       1.833   3.104   0.013  1.00  0.00     0.094 C 
ATOM      4  C   UNL     1      -0.019   1.531   0.011  1.00  0.00     0.173 C 
ATOM      5  C   UNL     1      -0.337   0.045  -0.210  1.00  0.00     0.069 C 
ATOM      6  C   UNL     1       0.390  -0.752   0.843  1.00  0.00    -0.016 A 
ATOM      7  C   UNL     1       0.187  -2.123   1.257  1.00  0.00     0.003 A 
ATOM      8  C   UNL     1      -0.703  -3.119   0.842  1.00  0.00     0.010 A 
ATOM      9  C   UNL     1      -0.611  -4.335   1.472  1.00  0.00     0.001 A 
ATOM     10  C   UNL     1       0.316  -4.578   2.472  1.00  0.00     0.002 A 
ATOM     11  C   UNL     1       1.209  -3.612   2.902  1.00  0.00     0.026 A 
ATOM     12  C   UNL     1       1.139  -2.367   2.281  1.00  0.00     0.046 A 
ATOM     13  N   UNL     1       1.853  -1.216   2.456  1.00  0.00    -0.357 N 
ATOM     14  C   UNL     1       1.399  -0.254   1.595  1.00  0.00     0.037 A 
ATOM     15  C   UNL     1       1.901   1.161   1.456  1.00  0.00     0.111 C 
ATOM     16  C   UNL     1       3.431   1.177   1.476  1.00  0.00     0.090 C 
ATOM     17  N   UNL     1       1.450   1.683   0.147  1.00  0.00    -0.274 NA
ATOM     18  H   UNL     1       2.618  -1.091   3.134  1.00  0.00     0.166 HD
ENDROOT
BRANCH   1  19
ATOM     19  N   UNL     1       3.440   3.430   2.442  1.00  0.00    -0.342 N 
ATOM     20  H   UNL     1       2.483   3.757   2.248  1.00  0.00     0.346 HD
ATOM     21  H   UNL     1       3.432   2.851   3.294  1.00  0.00     0.346 HD
BRANCH  19  22
ATOM     22  C   UNL     1       4.324   4.593   2.648  1.00  0.00     0.176 C 
ATOM     23  C   UNL     1       3.537   5.703   3.347  1.00  0.00     0.075 C 
ATOM     24  C   UNL     1       5.512   4.183   3.521  1.00  0.00     0.075 C 
ENDBRANCH  19  22
ENDBRANCH   1  19
BRANCH   3  25
ATOM     25  C   UNL     1       1.287   3.641  -1.285  1.00  0.00    -0.030 A 
ATOM     26  C   UNL     1       0.785   4.928  -1.344  1.00  0.00     0.006 A 
ATOM     27  C   UNL     1       1.292   2.849  -2.417  1.00  0.00     0.006 A 
ATOM     28  C   UNL     1       0.285   5.420  -2.534  1.00  0.00     0.013 A 
ATOM     29  C   UNL     1       0.786   3.339  -3.607  1.00  0.00     0.013 A 
ATOM     30  C   UNL     1       0.285   4.626  -3.666  1.00  0.00     0.056 A 
BRANCH  30  31
ATOM     31  C   UNL     1      -0.262   5.163  -4.963  1.00  0.00     0.416 C 
ATOM     32  F   UNL     1       0.767   5.781  -5.682  1.00  0.00    -0.166 F 
ATOM     33  F   UNL     1      -0.790   4.110  -5.718  1.00  0.00    -0.166 F 
ATOM     34  F   UNL     1      -1.269   6.096  -4.695  1.00  0.00    -0.166 F 
ENDBRANCH  30  31
ENDBRANCH   3  25
BRANCH   4  35
ATOM     35  C   UNL     1      -0.724   2.017   1.250  1.00  0.00     0.323 C 
ATOM     36  O   UNL     1      -0.114   2.639   2.088  1.00  0.00    -0.250 OA
BRANCH  35  37
ATOM     37  O   UNL     1      -2.030   1.759   1.424  1.00  0.00    -0.468 OA
ATOM     38  C   UNL     1      -2.644   2.257   2.642  1.00  0.00     0.282 C 
ENDBRANCH  35  37
ENDBRANCH   4  35
TORSDOF 6
