REMARK SMILES O=c1c2c3c(sc2ncn1Cc1cnc2ccccc2c1)C[C@@H]([NH2+]Cc1cccc(F)c1F)CC3
REMARK SMILES IDX 10 1 9 2 8 3 7 4 3 5 2 6 1 7 4 8 5 9 6 10 22 11 23 12 34 13
REMARK SMILES IDX 35 14 11 15 12 16 18 17 19 18 17 19 20 20 16 21 15 22 21 23
REMARK SMILES IDX 14 24 13 25 24 26 25 29 26 30 32 31 27 32 30 33 33 34 28 35
REMARK SMILES IDX 29 36 31 37
REMARK H PARENT 24 27 24 28
REMARK Flexibility Score: inf
ROOT
ATOM      1  N   UNL     1      -2.734  -3.242   1.389  1.00  0.00    -0.294 N 
ATOM      2  C   UNL     1      -2.254  -4.354   2.003  1.00  0.00     0.204 A 
ATOM      3  N   UNL     1      -2.575  -4.637   3.237  1.00  0.00    -0.227 NA
ATOM      4  C   UNL     1      -3.393  -3.849   3.928  1.00  0.00     0.131 A 
ATOM      5  C   UNL     1      -3.944  -2.682   3.377  1.00  0.00     0.080 A 
ATOM      6  C   UNL     1      -3.567  -2.396   2.024  1.00  0.00     0.262 A 
ATOM      7  O   UNL     1      -3.994  -1.405   1.458  1.00  0.00    -0.269 OA
ATOM      8  C   UNL     1      -4.827  -1.915   4.255  1.00  0.00    -0.018 A 
ATOM      9  C   UNL     1      -5.026  -2.399   5.499  1.00  0.00     0.017 A 
ATOM     10  S   UNL     1      -4.061  -3.884   5.573  1.00  0.00    -0.120 S 
ATOM     11  C   UNL     1      -5.878  -1.805   6.579  1.00  0.00     0.112 C 
ATOM     12  C   UNL     1      -6.797  -0.751   5.946  1.00  0.00     0.188 C 
ATOM     13  C   UNL     1      -5.956   0.154   5.041  1.00  0.00     0.070 C 
ATOM     14  C   UNL     1      -5.504  -0.623   3.804  1.00  0.00     0.044 C 
ENDROOT
BRANCH   1  15
ATOM     15  C   UNL     1      -2.342  -2.960   0.006  1.00  0.00     0.164 C 
BRANCH  15  16
ATOM     16  C   UNL     1      -1.094  -2.116  -0.000  1.00  0.00    -0.009 A 
ATOM     17  C   UNL     1       1.157   2.089   0.002  1.00  0.00     0.001 A 
ATOM     18  C   UNL     1      -0.017   1.400   0.010  1.00  0.00     0.010 A 
ATOM     19  C   UNL     1       2.379   1.419  -0.012  1.00  0.00     0.002 A 
ATOM     20  C   UNL     1       0.002  -0.004   0.002  1.00  0.00     0.000 A 
ATOM     21  C   UNL     1       2.435   0.059  -0.020  1.00  0.00     0.029 A 
ATOM     22  C   UNL     1       1.243  -0.688  -0.013  1.00  0.00     0.070 A 
ATOM     23  C   UNL     1      -1.189  -0.753   0.009  1.00  0.00     0.017 A 
ATOM     24  N   UNL     1       1.267  -2.024  -0.022  1.00  0.00    -0.256 NA
ATOM     25  C   UNL     1       0.159  -2.725  -0.016  1.00  0.00     0.117 A 
ENDBRANCH  15  16
ENDBRANCH   1  15
BRANCH  12  26
ATOM     26  N   UNL     1      -7.425   0.054   7.002  1.00  0.00    -0.340 N 
ATOM     27  H   UNL     1      -6.755   0.181   7.775  1.00  0.00     0.346 HD
ATOM     28  H   UNL     1      -7.674   0.979   6.623  1.00  0.00     0.346 HD
BRANCH  26  29
ATOM     29  C   UNL     1      -8.635  -0.601   7.514  1.00  0.00     0.300 C 
BRANCH  29  30
ATOM     30  C   UNL     1      -9.250   0.252   8.594  1.00  0.00     0.045 A 
ATOM     31  C   UNL     1     -10.027   1.345   8.254  1.00  0.00     0.167 A 
ATOM     32  C   UNL     1      -9.042  -0.060   9.925  1.00  0.00     0.013 A 
ATOM     33  C   UNL     1     -10.592   2.129   9.248  1.00  0.00     0.159 A 
ATOM     34  F   UNL     1     -10.236   1.648   6.954  1.00  0.00    -0.203 F 
ATOM     35  C   UNL     1      -9.600   0.724  10.916  1.00  0.00     0.004 A 
ATOM     36  C   UNL     1     -10.377   1.817  10.579  1.00  0.00     0.042 A 
ATOM     37  F   UNL     1     -11.351   3.197   8.918  1.00  0.00    -0.204 F 
ENDBRANCH  29  30
ENDBRANCH  26  29
ENDBRANCH  12  26
TORSDOF 5
