REMARK SMILES OCC#Cc1csc(C[N@@H+]2CC[C@@]3(CCCN(Cc4ccc(F)cc4)C3)C2)c1
REMARK SMILES IDX 8 1 28 2 5 3 6 4 7 5 9 6 10 7 17 8 26 9 16 10 13 11 15 12
REMARK SMILES IDX 14 13 27 14 12 15 11 16 18 18 19 19 20 20 21 21 25 22 22 23
REMARK SMILES IDX 24 24 23 25 4 26 3 27 2 28 1 29
REMARK H PARENT 10 17 1 30
REMARK Flexibility Score: inf
ROOT
ATOM      1  C   UNL     1       5.136   3.667  -4.302  1.00  0.00     0.060 A 
ATOM      2  C   UNL     1       4.598   4.563  -5.158  1.00  0.00     0.038 A 
ATOM      3  C   UNL     1       5.041   4.587  -6.479  1.00  0.00     0.036 A 
ATOM      4  C   UNL     1       6.009   3.696  -6.857  1.00  0.00     0.082 A 
ATOM      5  S   UNL     1       6.311   2.811  -5.337  1.00  0.00    -0.142 S 
ENDROOT
BRANCH   1   6
ATOM      6  C   UNL     1       4.826   3.449  -2.843  1.00  0.00     0.310 C 
BRANCH   6   7
ATOM      7  N   UNL     1       3.746   2.462  -2.713  1.00  0.00    -0.330 N 
ATOM      8  N   UNL     1      -0.018   1.464   0.010  1.00  0.00    -0.298 NA
ATOM      9  C   UNL     1       1.345   2.013   0.000  1.00  0.00     0.098 C 
ATOM     10  C   UNL     1       0.002  -0.004   0.002  1.00  0.00     0.085 C 
ATOM     11  C   UNL     1       2.069   1.561  -1.264  1.00  0.00     0.038 C 
ATOM     12  C   UNL     1       0.670  -0.502  -1.282  1.00  0.00     0.016 C 
ATOM     13  C   UNL     1       2.103   0.038  -1.346  1.00  0.00     0.016 C 
ATOM     14  C   UNL     1       3.501   2.125  -1.286  1.00  0.00     0.271 C 
ATOM     15  C   UNL     1       1.378   2.144  -2.509  1.00  0.00     0.075 C 
ATOM     16  C   UNL     1       2.453   3.022  -3.186  1.00  0.00     0.263 C 
ATOM     17  H   UNL     1       4.044   1.644  -3.264  1.00  0.00     0.348 HD
BRANCH   8  18
ATOM     18  C   UNL     1      -0.782   1.974   1.156  1.00  0.00     0.120 C 
BRANCH  18  19
ATOM     19  C   UNL     1      -0.068   1.618   2.435  1.00  0.00    -0.034 A 
ATOM     20  C   UNL     1      -0.353   0.427   3.076  1.00  0.00     0.008 A 
ATOM     21  C   UNL     1       0.306   0.097   4.246  1.00  0.00     0.039 A 
ATOM     22  C   UNL     1       0.868   2.485   2.968  1.00  0.00     0.008 A 
ATOM     23  C   UNL     1       1.243   0.965   4.781  1.00  0.00     0.123 A 
ATOM     24  C   UNL     1       1.523   2.160   4.140  1.00  0.00     0.039 A 
ATOM     25  F   UNL     1       1.882   0.647   5.927  1.00  0.00    -0.207 F 
ENDBRANCH  18  19
ENDBRANCH   8  18
ENDBRANCH   6   7
ENDBRANCH   1   6
BRANCH   3  26
ATOM     26  C   UNL     1       4.497   5.521  -7.418  1.00  0.00    -0.064 C 
ATOM     27  C   UNL     1       4.051   6.287  -8.188  1.00  0.00    -0.070 C 
BRANCH  27  28
ATOM     28  C   UNL     1       3.491   7.247  -9.153  1.00  0.00     0.245 C 
BRANCH  28  29
ATOM     29  O   UNL     1       3.733   8.579  -8.695  1.00  0.00    -0.384 OA
ATOM     30  H   UNL     1       4.708   8.728  -8.610  1.00  0.00     0.211 HD
ENDBRANCH  28  29
ENDBRANCH  27  28
ENDBRANCH   3  26
TORSDOF 7
