REMARK SMILES CCCCOC(=O)c1ccc(NNc2nc(C)c(Cc3ccccc3)c(=O)n2Cc2ccc(Cl)cc2)cc1
REMARK SMILES IDX 8 1 9 2 10 3 11 4 37 5 38 6 6 7 7 8 5 9 4 10 3 11 2 12 1 13
REMARK SMILES IDX 12 14 13 16 14 18 28 19 15 20 26 21 16 22 18 23 27 24 17 25
REMARK SMILES IDX 29 26 30 27 36 28 31 29 35 30 32 31 33 32 34 33 19 34 20 35
REMARK SMILES IDX 25 36 21 37 24 38 22 39 23 40
REMARK H PARENT 12 15 13 17
REMARK Flexibility Score: inf
ROOT
ATOM      1  C   UNL     1      -0.201  -6.875  -0.035  1.00  0.00     0.060 A 
ATOM      2  C   UNL     1      -1.397  -6.150  -0.019  1.00  0.00     0.018 A 
ATOM      3  C   UNL     1      -1.366  -4.779  -0.012  1.00  0.00     0.028 A 
ATOM      4  C   UNL     1      -0.146  -4.109  -0.020  1.00  0.00     0.054 A 
ATOM      5  C   UNL     1       1.047  -4.828  -0.041  1.00  0.00     0.028 A 
ATOM      6  C   UNL     1       1.023  -6.199  -0.043  1.00  0.00     0.018 A 
ENDROOT
BRANCH   1   7
ATOM      7  C   UNL     1      -0.231  -8.349  -0.042  1.00  0.00     0.338 C 
ATOM      8  O   UNL     1      -1.295  -8.935  -0.035  1.00  0.00    -0.246 OA
BRANCH   7   9
ATOM      9  O   UNL     1       0.922  -9.046  -0.057  1.00  0.00    -0.462 OA
BRANCH   9  10
ATOM     10  C   UNL     1       0.818 -10.494  -0.063  1.00  0.00     0.233 C 
BRANCH  10  11
ATOM     11  C   UNL     1       2.219 -11.107  -0.080  1.00  0.00     0.041 C 
BRANCH  11  12
ATOM     12  C   UNL     1       2.108 -12.633  -0.086  1.00  0.00     0.000 C 
ATOM     13  C   UNL     1       3.510 -13.246  -0.103  1.00  0.00     0.004 C 
ENDBRANCH  11  12
ENDBRANCH  10  11
ENDBRANCH   9  10
ENDBRANCH   7   9
ENDBRANCH   1   7
BRANCH   4  14
ATOM     14  N   UNL     1      -0.118  -2.719  -0.012  1.00  0.00    -0.298 N 
ATOM     15  H   UNL     1      -0.999  -2.187  -0.001  1.00  0.00     0.188 HD
BRANCH  14  16
ATOM     16  N   UNL     1       1.109  -2.043  -0.020  1.00  0.00    -0.269 N 
ATOM     17  H   UNL     1       1.991  -2.576  -0.031  1.00  0.00     0.191 HD
BRANCH  16  18
ATOM     18  C   UNL     1       1.137  -0.675  -0.012  1.00  0.00     0.225 A 
ATOM     19  N   UNL     1       2.335  -0.030  -0.020  1.00  0.00    -0.273 N 
ATOM     20  N   UNL     1       0.002  -0.004   0.002  1.00  0.00    -0.218 NA
ATOM     21  C   UNL     1       2.370   1.320  -0.013  1.00  0.00     0.259 A 
ATOM     22  C   UNL     1      -0.016   1.327   0.009  1.00  0.00     0.050 A 
ATOM     23  C   UNL     1       1.155   2.027   0.002  1.00  0.00     0.043 A 
ATOM     24  O   UNL     1       3.436   1.914  -0.021  1.00  0.00    -0.269 OA
ATOM     25  C   UNL     1      -1.332   2.061   0.019  1.00  0.00     0.067 C 
BRANCH  19  26
ATOM     26  C   UNL     1       3.583  -0.798  -0.036  1.00  0.00     0.164 C 
BRANCH  26  27
ATOM     27  C   UNL     1       3.997  -1.054  -1.462  1.00  0.00    -0.028 A 
ATOM     28  C   UNL     1       4.815  -0.151  -2.116  1.00  0.00     0.007 A 
ATOM     29  C   UNL     1       3.564  -2.194  -2.113  1.00  0.00     0.007 A 
ATOM     30  C   UNL     1       5.195  -0.386  -3.424  1.00  0.00     0.021 A 
ATOM     31  C   UNL     1       3.939  -2.426  -3.423  1.00  0.00     0.021 A 
ATOM     32  C   UNL     1       4.758  -1.524  -4.079  1.00  0.00     0.041 A 
ATOM     33  Cl  UNL     1       5.235  -1.819  -5.721  1.00  0.00    -0.084 Cl
ENDBRANCH  26  27
ENDBRANCH  19  26
BRANCH  23  34
ATOM     34  C   UNL     1       1.146   3.534   0.011  1.00  0.00     0.078 C 
BRANCH  34  35
ATOM     35  C   UNL     1       1.281   4.029   1.428  1.00  0.00    -0.043 A 
ATOM     36  C   UNL     1       2.534   4.264   1.962  1.00  0.00     0.004 A 
ATOM     37  C   UNL     1       0.151   4.254   2.192  1.00  0.00     0.004 A 
ATOM     38  C   UNL     1       2.658   4.718   3.261  1.00  0.00     0.000 A 
ATOM     39  C   UNL     1       0.275   4.704   3.493  1.00  0.00     0.000 A 
ATOM     40  C   UNL     1       1.528   4.938   4.027  1.00  0.00     0.000 A 
ENDBRANCH  34  35
ENDBRANCH  23  34
ENDBRANCH  16  18
ENDBRANCH  14  16
ENDBRANCH   4  14
TORSDOF 12
