REMARK SMILES NS(=O)(=O)c1cc(C(=O)OCC(=O)c2c(-c3ccc(F)cc3)[nH]c3ccccc23)ccc1Cl
REMARK SMILES IDX 10 1 11 2 12 3 13 4 14 5 27 6 28 7 26 8 29 9 25 10 24 11
REMARK SMILES IDX 23 12 15 13 16 15 22 16 17 17 21 18 18 19 19 20 20 21 8 22
REMARK SMILES IDX 9 23 7 24 6 25 30 26 5 27 31 28 32 29 33 30 2 31 3 32 4 33
REMARK SMILES IDX 1 34
REMARK H PARENT 23 14 1 35 1 36
REMARK Flexibility Score: inf
ROOT
ATOM      1  O   UNL     1      -1.581   5.607   0.049  1.00  0.00    -0.454 OA
ENDROOT
BRANCH   1   2
ATOM      2  C   UNL     1      -0.870   4.341   0.035  1.00  0.00     0.314 C 
BRANCH   2   3
ATOM      3  C   UNL     1       0.615   4.600   0.022  1.00  0.00     0.203 C 
ATOM      4  O   UNL     1       1.033   5.740   0.024  1.00  0.00    -0.290 OA
BRANCH   3   5
ATOM      5  C   UNL     1       1.520   3.516   0.007  1.00  0.00     0.055 A 
ATOM      6  C   UNL     1       0.002  -0.004   0.002  1.00  0.00     0.001 A 
ATOM      7  C   UNL     1      -0.017   1.374   0.010  1.00  0.00     0.011 A 
ATOM      8  C   UNL     1       1.210  -0.687  -0.013  1.00  0.00     0.002 A 
ATOM      9  C   UNL     1       1.184   2.080   0.002  1.00  0.00     0.011 A 
ATOM     10  C   UNL     1       2.404  -0.000  -0.021  1.00  0.00     0.027 A 
ATOM     11  C   UNL     1       2.407   1.391  -0.014  1.00  0.00     0.047 A 
ATOM     12  N   UNL     1       3.424   2.326  -0.018  1.00  0.00    -0.354 N 
ATOM     13  C   UNL     1       2.912   3.588  -0.006  1.00  0.00     0.058 A 
ATOM     14  H   UNL     1       4.428   2.100  -0.029  1.00  0.00     0.167 HD
BRANCH  13  15
ATOM     15  C   UNL     1       3.704   4.832  -0.007  1.00  0.00    -0.001 A 
ATOM     16  C   UNL     1       4.794   4.969  -0.872  1.00  0.00     0.013 A 
ATOM     17  C   UNL     1       3.365   5.881   0.852  1.00  0.00     0.013 A 
ATOM     18  C   UNL     1       5.531   6.134  -0.869  1.00  0.00     0.040 A 
ATOM     19  C   UNL     1       4.113   7.038   0.851  1.00  0.00     0.040 A 
ATOM     20  C   UNL     1       5.193   7.169  -0.010  1.00  0.00     0.123 A 
ATOM     21  F   UNL     1       5.918   8.308  -0.011  1.00  0.00    -0.207 F 
ENDBRANCH  13  15
ENDBRANCH   3   5
ENDBRANCH   2   3
ENDBRANCH   1   2
BRANCH   1  22
ATOM     22  C   UNL     1      -2.927   5.551   0.062  1.00  0.00     0.338 C 
ATOM     23  O   UNL     1      -3.491   4.475   0.061  1.00  0.00    -0.246 OA
BRANCH  22  24
ATOM     24  C   UNL     1      -3.717   6.798   0.076  1.00  0.00     0.061 A 
ATOM     25  C   UNL     1      -5.113   6.744   0.090  1.00  0.00     0.039 A 
ATOM     26  C   UNL     1      -3.072   8.037   0.083  1.00  0.00     0.017 A 
ATOM     27  C   UNL     1      -5.845   7.913   0.104  1.00  0.00     0.101 A 
ATOM     28  C   UNL     1      -3.816   9.198   0.092  1.00  0.00     0.023 A 
ATOM     29  C   UNL     1      -5.200   9.138   0.105  1.00  0.00     0.061 A 
ATOM     30  Cl  UNL     1      -6.129  10.604   0.123  1.00  0.00    -0.083 Cl
BRANCH  27  31
ATOM     31  S   UNL     1      -7.606   7.847   0.120  1.00  0.00     0.239 S 
ATOM     32  O   UNL     1      -8.055   8.733  -0.895  1.00  0.00    -0.207 OA
ATOM     33  O   UNL     1      -7.960   6.471   0.142  1.00  0.00    -0.207 OA
BRANCH  31  34
ATOM     34  N   UNL     1      -8.107   8.487   1.563  1.00  0.00    -0.225 NA
ATOM     35  H   UNL     1      -8.595   7.894   2.248  1.00  0.00     0.137 HD
ATOM     36  H   UNL     1      -7.930   9.480   1.775  1.00  0.00     0.137 HD
ENDBRANCH  31  34
ENDBRANCH  27  31
ENDBRANCH  22  24
ENDBRANCH   1  22
TORSDOF 8
