REMARK SMILES Nc1nc(N)nc(CSCC(=O)N2N=C(c3ccc4ccccc4c3)C[C@@H]2c2ccccc2)n1
REMARK SMILES IDX 10 1 11 2 12 3 13 4 27 5 26 6 14 7 15 8 28 9 31 10 32 11
REMARK SMILES IDX 30 12 33 13 29 14 16 15 25 16 17 17 24 18 18 19 19 20 23 21
REMARK SMILES IDX 20 22 22 23 21 24 9 25 8 26 7 27 34 28 6 29 2 30 4 31 3 32
REMARK SMILES IDX 1 33 5 36
REMARK H PARENT 1 34 1 35 5 37 5 38
REMARK Flexibility Score: inf
ROOT
ATOM      1  C   UNL     1      -6.867  -0.418   1.568  1.00  0.00     0.172 C 
ENDROOT
BRANCH   1   2
ATOM      2  C   UNL     1      -7.407  -0.752   2.935  1.00  0.00     0.253 C 
ATOM      3  O   UNL     1      -6.804  -0.400   3.928  1.00  0.00    -0.272 OA
BRANCH   2   4
ATOM      4  N   UNL     1      -8.558  -1.442   3.055  1.00  0.00    -0.225 N 
ATOM      5  C   UNL     1      -9.193  -1.833   4.324  1.00  0.00     0.147 C 
ATOM      6  C   UNL     1     -10.460  -2.588   3.876  1.00  0.00     0.091 C 
ATOM      7  N   UNL     1      -9.344  -1.897   1.999  1.00  0.00    -0.174 NA
ATOM      8  C   UNL     1     -10.399  -2.539   2.366  1.00  0.00     0.071 C 
BRANCH   5   9
ATOM      9  C   UNL     1      -9.559  -0.615   5.131  1.00  0.00    -0.023 A 
ATOM     10  C   UNL     1     -10.231   1.621   6.613  1.00  0.00     0.000 A 
ATOM     11  C   UNL     1     -10.385   1.630   5.239  1.00  0.00     0.000 A 
ATOM     12  C   UNL     1      -9.740   0.494   7.246  1.00  0.00     0.000 A 
ATOM     13  C   UNL     1     -10.044   0.514   4.498  1.00  0.00     0.006 A 
ATOM     14  C   UNL     1      -9.404  -0.624   6.505  1.00  0.00     0.006 A 
ENDBRANCH   5   9
BRANCH   8  15
ATOM     15  C   UNL     1     -11.397  -3.128   1.455  1.00  0.00    -0.002 A 
ATOM     16  C   UNL     1     -11.230  -3.010   0.084  1.00  0.00     0.018 A 
ATOM     17  C   UNL     1     -12.514  -3.801   1.983  1.00  0.00     0.011 A 
ATOM     18  C   UNL     1     -12.181  -3.578  -0.777  1.00  0.00    -0.018 A 
ATOM     19  C   UNL     1     -13.446  -4.351   1.164  1.00  0.00     0.009 A 
ATOM     20  C   UNL     1     -13.303  -4.253  -0.232  1.00  0.00    -0.018 A 
ATOM     21  C   UNL     1     -12.045  -3.483  -2.174  1.00  0.00     0.009 A 
ATOM     22  C   UNL     1     -14.255  -4.814  -1.099  1.00  0.00     0.009 A 
ATOM     23  C   UNL     1     -12.988  -4.039  -2.982  1.00  0.00     0.001 A 
ATOM     24  C   UNL     1     -14.091  -4.703  -2.446  1.00  0.00     0.001 A 
ENDBRANCH   8  15
ENDBRANCH   2   4
ENDBRANCH   1   2
BRANCH   1  25
ATOM     25  S   UNL     1      -5.317   0.509   1.740  1.00  0.00    -0.144 SA
BRANCH  25  26
ATOM     26  C   UNL     1      -4.806   0.829   0.029  1.00  0.00     0.147 C 
BRANCH  26  27
ATOM     27  C   UNL     1      -3.513   1.603   0.027  1.00  0.00     0.146 A 
ATOM     28  N   UNL     1      -2.360   0.959   0.018  1.00  0.00    -0.197 NA
ATOM     29  N   UNL     1      -3.536   2.925   0.035  1.00  0.00    -0.197 NA
ATOM     30  C   UNL     1      -1.215   1.639   0.017  1.00  0.00     0.225 A 
ATOM     31  C   UNL     1      -2.396   3.612   0.033  1.00  0.00     0.225 A 
ATOM     32  N   UNL     1      -1.234   2.968   0.029  1.00  0.00    -0.177 NA
BRANCH  30  33
ATOM     33  N   UNL     1      -0.011   0.966   0.007  1.00  0.00    -0.368 N 
ATOM     34  H   UNL     1       0.874   1.493   0.010  1.00  0.00     0.159 HD
ATOM     35  H   UNL     1       0.003  -0.064  -0.003  1.00  0.00     0.159 HD
ENDBRANCH  30  33
BRANCH  31  36
ATOM     36  N   UNL     1      -2.421   4.992   0.041  1.00  0.00    -0.368 N 
ATOM     37  H   UNL     1      -3.323   5.490   0.047  1.00  0.00     0.159 HD
ATOM     38  H   UNL     1      -1.539   5.523   0.039  1.00  0.00     0.159 HD
ENDBRANCH  31  36
ENDBRANCH  26  27
ENDBRANCH  25  26
ENDBRANCH   1  25
TORSDOF 9
