REMARK SMILES COc1cc([C@H]2C(C#N)=C(N)Oc3[nH]nc(-c4ccc(Cl)cc4)c32)ccc1O
REMARK SMILES IDX 6 1 24 2 16 3 15 4 14 5 13 6 12 7 10 8 7 9 5 11 3 12 27 13
REMARK SMILES IDX 4 14 26 15 25 16 2 17 1 18 28 19 8 21 9 22 11 23 17 26 23 27
REMARK SMILES IDX 18 28 22 29 19 30 20 31 21 32
REMARK H PARENT 14 10 28 20 11 24 11 25
REMARK Flexibility Score: inf
ROOT
ATOM      1  C   UNL     1       1.278   2.144  -0.124  1.00  0.00     0.104 C 
ATOM      2  C   UNL     1       1.044   3.612  -0.366  1.00  0.00     0.055 A 
ATOM      3  C   UNL     1       1.969   4.619  -0.660  1.00  0.00     0.100 A 
ATOM      4  N   UNL     1       1.307   5.753  -0.790  1.00  0.00    -0.172 NA
ATOM      5  N   UNL     1      -0.057   5.495  -0.582  1.00  0.00    -0.246 N 
ATOM      6  C   UNL     1      -0.198   4.178  -0.325  1.00  0.00     0.222 A 
ATOM      7  O   UNL     1      -1.320   3.462  -0.066  1.00  0.00    -0.422 OA
ATOM      8  C   UNL     1      -1.230   2.118  -0.121  1.00  0.00     0.207 C 
ATOM      9  C   UNL     1      -0.059   1.444  -0.148  1.00  0.00     0.102 C 
ATOM     10  H   UNL     1      -0.817   6.189  -0.619  1.00  0.00     0.193 HD
ENDROOT
BRANCH   1  11
ATOM     11  C   UNL     1       1.931   1.947   1.220  1.00  0.00    -0.031 A 
ATOM     12  C   UNL     1       3.729   1.078   2.546  1.00  0.00     0.160 A 
ATOM     13  C   UNL     1       3.127   1.588   3.692  1.00  0.00     0.157 A 
ATOM     14  C   UNL     1       3.127   1.260   1.311  1.00  0.00     0.055 A 
ATOM     15  C   UNL     1       1.928   2.276   3.593  1.00  0.00     0.050 A 
ATOM     16  C   UNL     1       1.336   2.459   2.358  1.00  0.00     0.009 A 
BRANCH  12  17
ATOM     17  O   UNL     1       4.906   0.403   2.637  1.00  0.00    -0.493 OA
ATOM     18  C   UNL     1       5.466  -0.092   1.419  1.00  0.00     0.278 C 
ENDBRANCH  12  17
BRANCH  13  19
ATOM     19  O   UNL     1       3.715   1.413   4.906  1.00  0.00    -0.504 OA
ATOM     20  H   UNL     1       4.621   1.798   4.808  1.00  0.00     0.293 HD
ENDBRANCH  13  19
ENDBRANCH   1  11
BRANCH   9  21
ATOM     21  C   UNL     1      -0.087   0.013  -0.206  1.00  0.00     0.101 C 
ATOM     22  N   UNL     1      -0.110  -1.121  -0.252  1.00  0.00    -0.193 NA
ENDBRANCH   9  21
BRANCH   8  23
ATOM     23  N   UNL     1      -2.394   1.392  -0.147  1.00  0.00    -0.369 N 
ATOM     24  H   UNL     1      -3.315   1.854  -0.126  1.00  0.00     0.159 HD
ATOM     25  H   UNL     1      -2.342   0.364  -0.190  1.00  0.00     0.159 HD
ENDBRANCH   8  23
BRANCH   3  26
ATOM     26  C   UNL     1       3.436   4.443  -0.801  1.00  0.00     0.003 A 
ATOM     27  C   UNL     1       3.945   3.342  -1.487  1.00  0.00     0.012 A 
ATOM     28  C   UNL     1       4.308   5.380  -0.252  1.00  0.00     0.012 A 
ATOM     29  C   UNL     1       5.309   3.183  -1.616  1.00  0.00     0.021 A 
ATOM     30  C   UNL     1       5.671   5.210  -0.382  1.00  0.00     0.021 A 
ATOM     31  C   UNL     1       6.172   4.115  -1.065  1.00  0.00     0.041 A 
ATOM     32  Cl  UNL     1       7.888   3.909  -1.230  1.00  0.00    -0.084 Cl
ENDBRANCH   3  26
TORSDOF 6
