REMARK SMILES CCOc1ccc(-c2n[nH]c3c2[C@H](c2c(C)nn(-c4ccccc4)c2Cl)C(C#N)=C(N)O3)cc1
REMARK SMILES IDX 8 1 12 2 11 3 10 4 9 5 32 6 30 7 27 8 13 9 7 11 4 12 34 13
REMARK SMILES IDX 5 14 33 15 6 16 3 17 2 18 1 19 14 20 25 21 15 22 18 23 26 24
REMARK SMILES IDX 17 25 16 26 19 27 24 28 20 29 23 30 21 31 22 32 28 33 29 34
REMARK SMILES IDX 31 35
REMARK H PARENT 10 10 31 36 31 37
REMARK Flexibility Score: inf
ROOT
ATOM      1  C   UNL     1      -0.411   8.775  -3.252  1.00  0.00     0.100 A 
ATOM      2  C   UNL     1      -1.436   8.537  -2.331  1.00  0.00     0.055 A 
ATOM      3  C   UNL     1      -2.580   8.278  -3.029  1.00  0.00     0.222 A 
ATOM      4  N   UNL     1      -2.283   8.349  -4.344  1.00  0.00    -0.246 N 
ATOM      5  N   UNL     1      -0.920   8.661  -4.464  1.00  0.00    -0.172 NA
ATOM      6  O   UNL     1      -3.762   8.008  -2.423  1.00  0.00    -0.422 OA
ATOM      7  C   UNL     1      -3.861   8.266  -1.103  1.00  0.00     0.207 C 
ATOM      8  C   UNL     1      -2.800   8.524  -0.306  1.00  0.00     0.102 C 
ATOM      9  C   UNL     1      -1.385   8.543  -0.825  1.00  0.00     0.109 C 
ATOM     10  H   UNL     1      -2.942   8.200  -5.122  1.00  0.00     0.193 HD
ENDROOT
BRANCH   1  11
ATOM     11  C   UNL     1       1.000   9.097  -2.925  1.00  0.00     0.003 A 
ATOM     12  C   UNL     1       3.634   9.700  -2.313  1.00  0.00     0.119 A 
ATOM     13  C   UNL     1       2.610  10.171  -1.503  1.00  0.00     0.047 A 
ATOM     14  C   UNL     1       3.341   8.927  -3.429  1.00  0.00     0.047 A 
ATOM     15  C   UNL     1       1.297   9.877  -1.808  1.00  0.00     0.014 A 
ATOM     16  C   UNL     1       2.030   8.626  -3.736  1.00  0.00     0.014 A 
BRANCH  12  17
ATOM     17  O   UNL     1       4.926   9.996  -2.014  1.00  0.00    -0.494 OA
BRANCH  17  18
ATOM     18  C   UNL     1       5.155  10.795  -0.852  1.00  0.00     0.226 C 
ATOM     19  C   UNL     1       6.659  11.022  -0.678  1.00  0.00     0.049 C 
ENDBRANCH  17  18
ENDBRANCH  12  17
ENDBRANCH   1  11
BRANCH   9  20
ATOM     20  C   UNL     1      -0.647   7.323  -0.337  1.00  0.00     0.026 A 
ATOM     21  C   UNL     1      -0.981   6.035  -0.591  1.00  0.00     0.137 A 
ATOM     22  C   UNL     1       0.506   7.321   0.455  1.00  0.00     0.066 A 
ATOM     23  N   UNL     1      -0.069   5.244   0.030  1.00  0.00    -0.222 N 
ATOM     24  Cl  UNL     1      -2.333   5.494  -1.537  1.00  0.00    -0.062 Cl
ATOM     25  N   UNL     1       0.853   6.078   0.675  1.00  0.00    -0.172 NA
ATOM     26  C   UNL     1       1.227   8.541   0.967  1.00  0.00     0.069 C 
BRANCH  23  27
ATOM     27  C   UNL     1      -0.050   3.842   0.022  1.00  0.00     0.066 A 
ATOM     28  C   UNL     1      -1.242   3.130   0.030  1.00  0.00     0.028 A 
ATOM     29  C   UNL     1       1.161   3.163   0.007  1.00  0.00     0.028 A 
ATOM     30  C   UNL     1      -1.220   1.749   0.017  1.00  0.00     0.002 A 
ATOM     31  C   UNL     1       1.176   1.782   0.000  1.00  0.00     0.002 A 
ATOM     32  C   UNL     1      -0.013   1.076   0.008  1.00  0.00     0.000 A 
ENDBRANCH  23  27
ENDBRANCH   9  20
BRANCH   8  33
ATOM     33  C   UNL     1      -3.030   8.790   1.083  1.00  0.00     0.101 C 
ATOM     34  N   UNL     1      -3.211   9.001   2.184  1.00  0.00    -0.193 NA
ENDBRANCH   8  33
BRANCH   7  35
ATOM     35  N   UNL     1      -5.111   8.266  -0.536  1.00  0.00    -0.369 N 
ATOM     36  H   UNL     1      -5.954   8.075  -1.096  1.00  0.00     0.159 HD
ATOM     37  H   UNL     1      -5.204   8.461   0.471  1.00  0.00     0.159 HD
ENDBRANCH   7  35
TORSDOF 7
