REMARK SMILES COc1cc(O)c(-c2ccc(OC)c3c(O)cc(C)cc23)c2c1[C@@H](C)[NH2+][C@H](C)C2
REMARK SMILES IDX 7 1 5 2 4 3 3 4 23 5 22 6 29 7 27 8 24 9 25 10 28 11 26 12
REMARK SMILES IDX 8 15 19 16 18 17 17 18 20 19 15 20 21 21 14 22 11 23 9 24
REMARK SMILES IDX 10 25 16 26 12 28 13 29 6 30 2 32 1 33
REMARK H PARENT 26 13 26 14 16 27 6 31
REMARK Flexibility Score: inf
ROOT
ATOM      1  C   UNL     1      -1.561   7.057  -0.419  1.00  0.00     0.028 A 
ATOM      2  C   UNL     1      -2.266   7.779  -1.387  1.00  0.00     0.127 A 
ATOM      3  C   UNL     1      -3.480   8.356  -1.061  1.00  0.00     0.093 A 
ATOM      4  C   UNL     1      -3.988   8.218   0.221  1.00  0.00     0.132 A 
ATOM      5  C   UNL     1      -3.287   7.502   1.190  1.00  0.00     0.055 A 
ATOM      6  C   UNL     1      -2.084   6.916   0.871  1.00  0.00    -0.018 A 
ATOM      7  C   UNL     1      -1.299   6.118   1.879  1.00  0.00     0.101 C 
ATOM      8  C   UNL     1      -1.799   6.425   3.291  1.00  0.00     0.184 C 
ATOM      9  C   UNL     1      -3.882   7.395   2.569  1.00  0.00     0.214 C 
ATOM     10  C   UNL     1      -5.384   7.131   2.452  1.00  0.00     0.081 C 
ATOM     11  C   UNL     1      -1.410   7.855   3.674  1.00  0.00     0.075 C 
ATOM     12  N   UNL     1      -3.265   6.283   3.310  1.00  0.00    -0.338 N 
ATOM     13  H   UNL     1      -3.599   6.294   4.285  1.00  0.00     0.347 HD
ATOM     14  H   UNL     1      -3.529   5.390   2.870  1.00  0.00     0.347 HD
ENDROOT
BRANCH   1  15
ATOM     15  C   UNL     1      -0.261   6.436  -0.761  1.00  0.00    -0.006 A 
ATOM     16  C   UNL     1      -2.582   2.311  -2.151  1.00  0.00     0.044 C 
ATOM     17  C   UNL     1      -1.315   3.100  -1.947  1.00  0.00    -0.047 A 
ATOM     18  C   UNL     1      -0.089   2.522  -2.261  1.00  0.00     0.050 A 
ATOM     19  C   UNL     1      -1.387   4.369  -1.454  1.00  0.00     0.013 A 
ATOM     20  C   UNL     1       1.084   3.223  -2.090  1.00  0.00     0.127 A 
ATOM     21  C   UNL     1      -0.214   5.114  -1.266  1.00  0.00    -0.003 A 
ATOM     22  C   UNL     1       1.038   4.538  -1.587  1.00  0.00     0.066 A 
ATOM     23  C   UNL     1       2.216   5.287  -1.399  1.00  0.00     0.130 A 
ATOM     24  C   UNL     1       0.915   7.144  -0.588  1.00  0.00     0.013 A 
ATOM     25  C   UNL     1       2.141   6.572  -0.905  1.00  0.00     0.048 A 
BRANCH  20  26
ATOM     26  O   UNL     1       2.275   2.651  -2.404  1.00  0.00    -0.507 OA
ATOM     27  H   UNL     1       2.809   2.708  -1.572  1.00  0.00     0.293 HD
ENDBRANCH  20  26
BRANCH  23  28
ATOM     28  O   UNL     1       3.423   4.745  -1.703  1.00  0.00    -0.496 OA
ATOM     29  C   UNL     1       4.575   5.562  -1.487  1.00  0.00     0.278 C 
ENDBRANCH  23  28
ENDBRANCH   1  15
BRANCH   2  30
ATOM     30  O   UNL     1      -1.761   7.912  -2.642  1.00  0.00    -0.507 OA
ATOM     31  H   UNL     1      -1.618   6.985  -2.957  1.00  0.00     0.293 HD
ENDBRANCH   2  30
BRANCH   4  32
ATOM     32  O   UNL     1      -5.181   8.787   0.537  1.00  0.00    -0.496 OA
ATOM     33  C   UNL     1      -5.851   9.507  -0.500  1.00  0.00     0.278 C 
ENDBRANCH   4  32
TORSDOF 5
