REMARK SMILES CCn1c(C)nc2cc(C(=O)NNC(=O)c3oc4ccccc4c3CSc3ccc(Cl)cc3)ccc21
REMARK SMILES IDX 16 1 24 2 23 3 22 4 21 5 20 6 19 7 18 8 17 9 14 10 13 11
REMARK SMILES IDX 15 13 12 14 10 15 11 16 9 18 3 19 36 20 4 21 7 22 35 23 6 24
REMARK SMILES IDX 5 25 8 26 34 27 2 28 1 29 25 30 26 31 27 32 33 33 28 34
REMARK SMILES IDX 32 35 29 36 30 37 31 38
REMARK H PARENT 13 12 12 17
REMARK Flexibility Score: inf
ROOT
ATOM      1  C   UNL     1       3.285  -5.167   1.029  1.00  0.00     0.198 A 
ATOM      2  C   UNL     1       3.178  -4.351  -0.051  1.00  0.00     0.022 A 
ATOM      3  C   UNL     1       3.264  -5.219  -1.225  1.00  0.00     0.025 A 
ATOM      4  C   UNL     1       3.227  -4.998  -2.604  1.00  0.00     0.012 A 
ATOM      5  C   UNL     1       3.338  -6.056  -3.462  1.00  0.00     0.001 A 
ATOM      6  C   UNL     1       3.487  -7.346  -2.972  1.00  0.00     0.004 A 
ATOM      7  C   UNL     1       3.526  -7.585  -1.616  1.00  0.00     0.048 A 
ATOM      8  C   UNL     1       3.416  -6.525  -0.723  1.00  0.00     0.135 A 
ATOM      9  O   UNL     1       3.420  -6.447   0.622  1.00  0.00    -0.451 OA
ENDROOT
BRANCH   1  10
ATOM     10  C   UNL     1       3.256  -4.724   2.430  1.00  0.00     0.305 C 
ATOM     11  N   UNL     1       3.372  -5.627   3.425  1.00  0.00    -0.260 N 
ATOM     12  H   UNL     1       3.481  -6.627   3.203  1.00  0.00     0.191 HD
ATOM     13  O   UNL     1       3.127  -3.543   2.692  1.00  0.00    -0.264 OA
BRANCH  11  14
ATOM     14  N   UNL     1       3.344  -5.205   4.760  1.00  0.00    -0.263 N 
ATOM     15  C   UNL     1       3.459  -6.107   5.755  1.00  0.00     0.269 C 
ATOM     16  O   UNL     1       3.588  -7.287   5.493  1.00  0.00    -0.267 OA
ATOM     17  H   UNL     1       3.235  -4.205   4.982  1.00  0.00     0.191 HD
BRANCH  15  18
ATOM     18  C   UNL     1       3.430  -5.662   7.163  1.00  0.00     0.043 A 
ATOM     19  N   UNL     1       3.380  -4.689  11.170  1.00  0.00    -0.329 N 
ATOM     20  C   UNL     1       3.372  -4.795   9.796  1.00  0.00     0.068 A 
ATOM     21  C   UNL     1       3.527  -5.944  11.675  1.00  0.00     0.106 A 
ATOM     22  C   UNL     1       3.521  -6.166   9.514  1.00  0.00     0.090 A 
ATOM     23  C   UNL     1       3.254  -3.877   8.759  1.00  0.00     0.029 A 
ATOM     24  N   UNL     1       3.610  -6.809  10.707  1.00  0.00    -0.233 NA
ATOM     25  C   UNL     1       3.586  -6.282  13.142  1.00  0.00     0.088 C 
ATOM     26  C   UNL     1       3.550  -6.595   8.188  1.00  0.00     0.044 A 
ATOM     27  C   UNL     1       3.287  -4.301   7.462  1.00  0.00     0.016 A 
BRANCH  19  28
ATOM     28  C   UNL     1       3.252  -3.451  11.945  1.00  0.00     0.120 C 
ATOM     29  C   UNL     1       4.641  -2.861  12.194  1.00  0.00     0.028 C 
ENDBRANCH  19  28
ENDBRANCH  15  18
ENDBRANCH  11  14
ENDBRANCH   1  10
BRANCH   2  30
ATOM     30  C   UNL     1       3.010  -2.853  -0.042  1.00  0.00     0.115 C 
BRANCH  30  31
ATOM     31  S   UNL     1       1.244  -2.443  -0.022  1.00  0.00    -0.121 SA
BRANCH  31  32
ATOM     32  C   UNL     1       1.216  -0.681  -0.013  1.00  0.00     0.008 A 
ATOM     33  C   UNL     1       2.407   0.034  -0.021  1.00  0.00     0.016 A 
ATOM     34  C   UNL     1       0.002  -0.004   0.002  1.00  0.00     0.016 A 
ATOM     35  C   UNL     1       2.382   1.415  -0.013  1.00  0.00     0.021 A 
ATOM     36  C   UNL     1      -0.017   1.377   0.010  1.00  0.00     0.021 A 
ATOM     37  C   UNL     1       1.171   2.086   0.002  1.00  0.00     0.041 A 
ATOM     38  Cl  UNL     1       1.144   3.822   0.012  1.00  0.00    -0.084 Cl
ENDBRANCH  31  32
ENDBRANCH  30  31
ENDBRANCH   2  30
TORSDOF 7
