REMARK SMILES CCOc1ccc(OCc2ccc(C(=O)NNC(=O)c3c[nH]c(=S)n3-c3ccccc3)cc2)cc1
REMARK SMILES IDX 10 1 11 2 12 3 13 4 32 5 33 6 9 7 8 8 7 9 4 10 35 11 5 12
REMARK SMILES IDX 34 13 6 14 3 15 2 16 1 17 14 18 15 19 16 20 17 22 18 23
REMARK SMILES IDX 19 25 20 26 25 27 21 28 23 29 22 30 24 31 26 33 31 34 27 35
REMARK SMILES IDX 30 36 28 37 29 38
REMARK H PARENT 16 21 17 24 22 32
REMARK Flexibility Score: inf
ROOT
ATOM      1  C   UNL     1       1.162  10.481   1.068  1.00  0.00    -0.011 A 
ATOM      2  C   UNL     1      -0.174  10.124   1.105  1.00  0.00     0.008 A 
ATOM      3  C   UNL     1      -0.541   8.798   1.003  1.00  0.00     0.014 A 
ATOM      4  C   UNL     1       0.440   7.815   0.864  1.00  0.00     0.041 A 
ATOM      5  C   UNL     1       1.787   8.181   0.833  1.00  0.00     0.014 A 
ATOM      6  C   UNL     1       2.139   9.511   0.930  1.00  0.00     0.008 A 
ENDROOT
BRANCH   1   7
ATOM      7  C   UNL     1       1.554  11.931   1.179  1.00  0.00     0.265 C 
BRANCH   7   8
ATOM      8  O   UNL     1       1.748  12.269   2.554  1.00  0.00    -0.489 OA
BRANCH   8   9
ATOM      9  C   UNL     1       2.108  13.551   2.830  1.00  0.00     0.120 A 
ATOM     10  C   UNL     1       2.842  16.160   3.392  1.00  0.00     0.119 A 
ATOM     11  C   UNL     1       2.639  15.765   2.078  1.00  0.00     0.050 A 
ATOM     12  C   UNL     1       2.678  15.248   4.424  1.00  0.00     0.050 A 
ATOM     13  C   UNL     1       2.277  14.461   1.798  1.00  0.00     0.050 A 
ATOM     14  C   UNL     1       2.312  13.946   4.144  1.00  0.00     0.050 A 
BRANCH  10  15
ATOM     15  O   UNL     1       3.203  17.442   3.668  1.00  0.00    -0.494 OA
BRANCH  15  16
ATOM     16  C   UNL     1       3.354  18.327   2.557  1.00  0.00     0.226 C 
ATOM     17  C   UNL     1       3.759  19.714   3.060  1.00  0.00     0.049 C 
ENDBRANCH  15  16
ENDBRANCH  10  15
ENDBRANCH   8   9
ENDBRANCH   7   8
ENDBRANCH   1   7
BRANCH   4  18
ATOM     18  C   UNL     1       0.055   6.392   0.755  1.00  0.00     0.269 C 
ATOM     19  O   UNL     1      -1.118   6.075   0.787  1.00  0.00    -0.267 OA
ATOM     20  N   UNL     1       1.005   5.445   0.620  1.00  0.00    -0.263 N 
ATOM     21  H   UNL     1       1.999   5.713   0.593  1.00  0.00     0.191 HD
BRANCH  20  22
ATOM     22  N   UNL     1       0.640   4.096   0.517  1.00  0.00    -0.262 N 
ATOM     23  C   UNL     1       1.590   3.150   0.382  1.00  0.00     0.288 C 
ATOM     24  H   UNL     1      -0.354   3.828   0.544  1.00  0.00     0.191 HD
ATOM     25  O   UNL     1       2.766   3.454   0.445  1.00  0.00    -0.266 OA
BRANCH  23  26
ATOM     26  C   UNL     1       1.206   1.752   0.159  1.00  0.00     0.131 A 
ATOM     27  N   UNL     1      -0.091   1.272  -0.057  1.00  0.00    -0.281 N 
ATOM     28  C   UNL     1       2.038   0.687   0.123  1.00  0.00     0.117 A 
ATOM     29  C   UNL     1      -0.009  -0.063  -0.217  1.00  0.00     0.182 A 
ATOM     30  N   UNL     1       1.281  -0.430  -0.110  1.00  0.00    -0.336 N 
ATOM     31  S   UNL     1      -1.327  -1.117  -0.508  1.00  0.00    -0.040 S 
ATOM     32  H   UNL     1       1.641  -1.392  -0.189  1.00  0.00     0.168 HD
BRANCH  27  33
ATOM     33  C   UNL     1      -1.260   2.041  -0.104  1.00  0.00     0.049 A 
ATOM     34  C   UNL     1      -2.199   1.942   0.913  1.00  0.00     0.027 A 
ATOM     35  C   UNL     1      -1.480   2.908  -1.167  1.00  0.00     0.027 A 
ATOM     36  C   UNL     1      -3.352   2.701   0.864  1.00  0.00     0.002 A 
ATOM     37  C   UNL     1      -2.637   3.660  -1.213  1.00  0.00     0.002 A 
ATOM     38  C   UNL     1      -3.571   3.560  -0.198  1.00  0.00     0.000 A 
ENDBRANCH  27  33
ENDBRANCH  23  26
ENDBRANCH  20  22
ENDBRANCH   4  18
TORSDOF 9
