REMARK SMILES Cc1[nH]c2ccccc2c1CCNC(=O)c1cc(S(=O)(=O)NC2CC2)c(Cl)cc1Cl
REMARK SMILES IDX 16 1 17 2 18 3 26 4 28 5 29 6 30 7 27 8 14 9 13 10 15 12
REMARK SMILES IDX 12 13 11 14 10 15 1 16 2 17 3 18 4 19 9 21 5 22 8 23 6 24
REMARK SMILES IDX 7 25 19 26 20 27 21 28 22 29 23 31 25 32 24 33
REMARK H PARENT 13 11 3 20 22 30
REMARK Flexibility Score: inf
ROOT
ATOM      1  C   UNL     1      -1.284   1.335  -0.080  1.00  0.00     0.059 A 
ATOM      2  C   UNL     1      -2.583   0.822  -0.065  1.00  0.00     0.038 A 
ATOM      3  C   UNL     1      -3.659   1.678   0.021  1.00  0.00     0.101 A 
ATOM      4  C   UNL     1      -3.456   3.047   0.091  1.00  0.00     0.062 A 
ATOM      5  C   UNL     1      -2.172   3.564   0.077  1.00  0.00     0.043 A 
ATOM      6  C   UNL     1      -1.085   2.716  -0.002  1.00  0.00     0.055 A 
ATOM      7  Cl  UNL     1       0.526   3.365  -0.012  1.00  0.00    -0.083 Cl
ATOM      8  Cl  UNL     1      -4.817   4.119   0.198  1.00  0.00    -0.083 Cl
ENDROOT
BRANCH   1   9
ATOM      9  C   UNL     1      -0.126   0.422  -0.171  1.00  0.00     0.252 C 
ATOM     10  N   UNL     1      -0.322  -0.909  -0.241  1.00  0.00    -0.352 N 
ATOM     11  H   UNL     1      -1.279  -1.291  -0.226  1.00  0.00     0.163 HD
ATOM     12  O   UNL     1       1.003   0.873  -0.189  1.00  0.00    -0.269 OA
BRANCH  10  13
ATOM     13  C   UNL     1       0.826  -1.814  -0.338  1.00  0.00     0.121 C 
BRANCH  13  14
ATOM     14  C   UNL     1       0.331  -3.260  -0.403  1.00  0.00     0.059 C 
BRANCH  14  15
ATOM     15  C   UNL     1       1.512  -4.191  -0.502  1.00  0.00    -0.018 A 
ATOM     16  C   UNL     1       1.658  -4.256  -3.026  1.00  0.00     0.064 C 
ATOM     17  C   UNL     1       2.092  -4.627  -1.631  1.00  0.00     0.016 A 
ATOM     18  N   UNL     1       3.139  -5.456  -1.329  1.00  0.00    -0.358 N 
ATOM     19  C   UNL     1       3.254  -5.584   0.037  1.00  0.00     0.046 A 
ATOM     20  H   UNL     1       3.749  -5.915  -2.020  1.00  0.00     0.166 HD
ATOM     21  C   UNL     1       2.240  -4.798   0.615  1.00  0.00     0.003 A 
ATOM     22  C   UNL     1       4.121  -6.293   0.863  1.00  0.00     0.026 A 
ATOM     23  C   UNL     1       2.114  -4.735   2.004  1.00  0.00     0.010 A 
ATOM     24  C   UNL     1       3.977  -6.217   2.231  1.00  0.00     0.002 A 
ATOM     25  C   UNL     1       2.976  -5.440   2.796  1.00  0.00     0.001 A 
ENDBRANCH  14  15
ENDBRANCH  13  14
ENDBRANCH  10  13
ENDBRANCH   1   9
BRANCH   3  26
ATOM     26  S   UNL     1      -5.298   1.031   0.039  1.00  0.00     0.242 S 
ATOM     27  O   UNL     1      -5.179  -0.379  -0.093  1.00  0.00    -0.207 OA
ATOM     28  O   UNL     1      -5.963   1.640   1.138  1.00  0.00    -0.207 OA
BRANCH  26  29
ATOM     29  N   UNL     1      -6.054   1.573  -1.331  1.00  0.00    -0.208 NA
ATOM     30  H   UNL     1      -6.861   2.209  -1.256  1.00  0.00     0.141 HD
BRANCH  29  31
ATOM     31  C   UNL     1      -5.575   1.149  -2.649  1.00  0.00     0.070 C 
ATOM     32  C   UNL     1      -6.620   0.936  -3.745  1.00  0.00     0.022 C 
ATOM     33  C   UNL     1      -5.692   2.151  -3.799  1.00  0.00     0.022 C 
ENDBRANCH  29  31
ENDBRANCH  26  29
ENDBRANCH   3  26
TORSDOF 7
