REMARK SMILES C[C@@H](NC(=O)[C@]12C[C@H]3C[C@H](C[C@H](C3)C1)C2)C(=O)N[C@@H](c1ccccc1)c1ccc2[nH]cnc2c1
REMARK SMILES IDX 1 1 2 2 16 3 17 4 18 5 19 7 20 8 25 9 21 10 24 11 22 12
REMARK SMILES IDX 23 13 26 14 34 15 27 16 33 17 28 18 29 19 32 20 30 21 31 22
REMARK SMILES IDX 3 24 4 25 5 27 6 28 15 29 7 30 14 31 10 32 8 33 12 34 11 35
REMARK SMILES IDX 9 36 13 37
REMARK H PARENT 18 6 30 23 3 26
REMARK Flexibility Score: inf
ROOT
ATOM      1  C   UNL     1       1.423   1.615  -0.003  1.00  0.00     0.041 C 
ATOM      2  C   UNL     1      -0.013   1.086   0.008  1.00  0.00     0.168 C 
ENDROOT
BRANCH   2   3
ATOM      3  C   UNL     1      -0.742   1.585  -1.213  1.00  0.00     0.243 C 
ATOM      4  O   UNL     1      -1.736   2.268  -1.088  1.00  0.00    -0.273 OA
ATOM      5  N   UNL     1      -0.288   1.272  -2.443  1.00  0.00    -0.343 N 
ATOM      6  H   UNL     1       0.556   0.692  -2.549  1.00  0.00     0.164 HD
BRANCH   5   7
ATOM      7  C   UNL     1      -0.997   1.758  -3.630  1.00  0.00     0.143 C 
BRANCH   7   8
ATOM      8  C   UNL     1      -0.521   3.148  -3.966  1.00  0.00    -0.021 A 
ATOM      9  C   UNL     1      -1.425   4.105  -4.386  1.00  0.00     0.006 A 
ATOM     10  C   UNL     1       0.819   3.467  -3.848  1.00  0.00     0.006 A 
ATOM     11  C   UNL     1      -0.989   5.380  -4.694  1.00  0.00     0.000 A 
ATOM     12  C   UNL     1       1.256   4.740  -4.160  1.00  0.00     0.000 A 
ATOM     13  C   UNL     1       0.351   5.698  -4.581  1.00  0.00     0.000 A 
ENDBRANCH   7   8
BRANCH   7  14
ATOM     14  C   UNL     1      -0.721   0.838  -4.791  1.00  0.00    -0.019 A 
ATOM     15  C   UNL     1      -1.729   0.519  -5.656  1.00  0.00     0.036 A 
ATOM     16  C   UNL     1       0.557   0.328  -4.974  1.00  0.00     0.008 A 
ATOM     17  C   UNL     1      -1.477  -0.334  -6.734  1.00  0.00     0.089 A 
ATOM     18  C   UNL     1       0.827  -0.520  -6.027  1.00  0.00     0.029 A 
ATOM     19  C   UNL     1      -0.185  -0.855  -6.917  1.00  0.00     0.065 A 
ATOM     20  N   UNL     1      -2.248  -0.825  -7.739  1.00  0.00    -0.237 NA
ATOM     21  N   UNL     1      -0.250  -1.648  -8.045  1.00  0.00    -0.345 N 
ATOM     22  C   UNL     1      -1.529  -1.593  -8.505  1.00  0.00     0.197 A 
ATOM     23  H   UNL     1       0.526  -2.182  -8.462  1.00  0.00     0.168 HD
ENDBRANCH   7  14
ENDBRANCH   5   7
ENDBRANCH   2   3
BRANCH   2  24
ATOM     24  N   UNL     1      -0.698   1.558   1.213  1.00  0.00    -0.344 N 
ATOM     25  C   UNL     1      -0.575   0.877   2.369  1.00  0.00     0.226 C 
ATOM     26  H   UNL     1      -1.274   2.411   1.177  1.00  0.00     0.164 HD
ATOM     27  O   UNL     1       0.103  -0.128   2.412  1.00  0.00    -0.274 OA
BRANCH  25  28
ATOM     28  C   UNL     1      -1.281   1.363   3.609  1.00  0.00     0.050 C 
ATOM     29  C   UNL     1      -0.978   0.416   4.773  1.00  0.00     0.020 C 
ATOM     30  C   UNL     1      -0.791   2.770   3.956  1.00  0.00     0.020 C 
ATOM     31  C   UNL     1      -2.790   1.395   3.358  1.00  0.00     0.020 C 
ATOM     32  C   UNL     1      -1.694   0.910   6.032  1.00  0.00    -0.010 C 
ATOM     33  C   UNL     1      -1.507   3.264   5.215  1.00  0.00    -0.010 C 
ATOM     34  C   UNL     1      -3.506   1.889   4.617  1.00  0.00    -0.010 C 
ATOM     35  C   UNL     1      -3.203   0.942   5.780  1.00  0.00     0.007 C 
ATOM     36  C   UNL     1      -1.204   2.317   6.378  1.00  0.00     0.007 C 
ATOM     37  C   UNL     1      -3.016   3.296   4.964  1.00  0.00     0.007 C 
ENDBRANCH  25  28
ENDBRANCH   2  24
TORSDOF 6
