REMARK SMILES CC(C)OC(=O)C1=c2s/c(=C\c3ccc(C(C)C)cc3)c(=O)n2C(N)=C(C#N)[C@@H]1c1ccc(C(C)C)cc1
REMARK SMILES IDX 11 1 10 2 21 3 22 4 23 5 8 6 7 7 29 8 26 9 24 10 9 11 12 12
REMARK SMILES IDX 15 13 19 14 14 15 20 16 13 17 16 18 17 19 18 20 5 21 6 22
REMARK SMILES IDX 4 23 2 24 1 25 3 26 25 27 30 30 38 31 31 32 37 33 32 34
REMARK SMILES IDX 33 35 34 36 35 37 36 38 27 39 28 40
REMARK H PARENT 25 28 25 29
REMARK Flexibility Score: inf
ROOT
ATOM      1  C   UNL     1      -6.210   6.890   4.167  1.00  0.00     0.033 C 
ATOM      2  C   UNL     1      -5.036   6.629   3.540  1.00  0.00     0.096 A 
ATOM      3  C   UNL     1      -4.147   7.540   2.808  1.00  0.00     0.274 A 
ATOM      4  O   UNL     1      -4.426   8.718   2.685  1.00  0.00    -0.267 OA
ATOM      5  N   UNL     1      -3.021   7.038   2.263  1.00  0.00    -0.251 N 
ATOM      6  C   UNL     1      -2.770   5.692   2.438  1.00  0.00     0.116 A 
ATOM      7  C   UNL     1      -1.667   5.045   1.948  1.00  0.00     0.084 C 
ATOM      8  C   UNL     1      -0.659   5.849   1.151  1.00  0.00     0.104 C 
ATOM      9  C   UNL     1      -0.980   7.320   0.981  1.00  0.00     0.083 C 
ATOM     10  C   UNL     1      -2.111   7.810   1.532  1.00  0.00     0.126 C 
ATOM     11  S   UNL     1      -4.146   5.088   3.394  1.00  0.00    -0.111 S 
ENDROOT
BRANCH   1  12
ATOM     12  C   UNL     1      -7.015   5.786   4.709  1.00  0.00    -0.024 A 
ATOM     13  C   UNL     1      -8.533   3.705   5.729  1.00  0.00    -0.045 A 
ATOM     14  C   UNL     1      -7.645   3.466   4.695  1.00  0.00     0.004 A 
ATOM     15  C   UNL     1      -8.667   4.978   6.257  1.00  0.00     0.004 A 
ATOM     16  C   UNL     1      -6.890   4.497   4.178  1.00  0.00     0.008 A 
ATOM     17  C   UNL     1      -7.915   6.019   5.755  1.00  0.00     0.008 A 
BRANCH  13  18
ATOM     18  C   UNL     1      -9.359   2.573   6.284  1.00  0.00     0.013 C 
ATOM     19  C   UNL     1     -10.231   1.986   5.173  1.00  0.00     0.012 C 
ATOM     20  C   UNL     1      -8.432   1.487   6.834  1.00  0.00     0.012 C 
ENDBRANCH  13  18
ENDBRANCH   1  12
BRANCH   7  21
ATOM     21  C   UNL     1      -1.478   3.674   2.172  1.00  0.00     0.338 C 
ATOM     22  O   UNL     1      -2.299   3.043   2.815  1.00  0.00    -0.246 OA
BRANCH  21  23
ATOM     23  O   UNL     1      -0.386   3.052   1.676  1.00  0.00    -0.460 OA
BRANCH  23  24
ATOM     24  C   UNL     1      -0.258   1.654   1.943  1.00  0.00     0.170 C 
ATOM     25  C   UNL     1       0.503   0.984   0.797  1.00  0.00     0.052 C 
ATOM     26  C   UNL     1       0.509   1.453   3.251  1.00  0.00     0.052 C 
ENDBRANCH  23  24
ENDBRANCH  21  23
ENDBRANCH   7  21
BRANCH  10  27
ATOM     27  N   UNL     1      -2.384   9.147   1.367  1.00  0.00    -0.384 N 
ATOM     28  H   UNL     1      -3.232   9.575   1.765  1.00  0.00     0.158 HD
ATOM     29  H   UNL     1      -1.724   9.729   0.832  1.00  0.00     0.158 HD
ENDBRANCH  10  27
BRANCH   8  30
ATOM     30  C   UNL     1      -0.537   5.231  -0.217  1.00  0.00    -0.035 A 
ATOM     31  C   UNL     1       0.683   4.750  -0.653  1.00  0.00     0.005 A 
ATOM     32  C   UNL     1      -1.648   5.140  -1.036  1.00  0.00     0.005 A 
ATOM     33  C   UNL     1       0.794   4.182  -1.908  1.00  0.00     0.004 A 
ATOM     34  C   UNL     1      -1.536   4.577  -2.293  1.00  0.00     0.004 A 
ATOM     35  C   UNL     1      -0.315   4.096  -2.729  1.00  0.00    -0.045 A 
BRANCH  35  36
ATOM     36  C   UNL     1      -0.194   3.478  -4.098  1.00  0.00     0.013 C 
ATOM     37  C   UNL     1      -1.125   2.268  -4.195  1.00  0.00     0.012 C 
ATOM     38  C   UNL     1      -0.585   4.508  -5.159  1.00  0.00     0.012 C 
ENDBRANCH  35  36
ENDBRANCH   8  30
BRANCH   9  39
ATOM     39  C   UNL     1      -0.098   8.177   0.246  1.00  0.00     0.100 C 
ATOM     40  N   UNL     1       0.602   8.856  -0.337  1.00  0.00    -0.193 NA
ENDBRANCH   9  39
TORSDOF 9
