REMARK SMILES Cc1cccc(C)c1-n1nnnc1S[C@H](C)C(=O)NCC1([NH+]2CCCCC2)CCCCC1
REMARK SMILES IDX 15 1 16 2 14 3 13 4 9 5 10 6 11 7 12 8 8 9 1 10 2 11 3 12
REMARK SMILES IDX 6 13 4 14 5 15 7 16 17 17 18 18 19 19 20 21 21 22 32 23
REMARK SMILES IDX 28 24 31 25 29 26 30 27 22 28 27 29 23 30 26 32 24 33 25 34
REMARK H PARENT 19 20 22 31
REMARK Flexibility Score: inf
ROOT
ATOM      1  C   UNL     1      -2.467  -0.628  -1.954  1.00  0.00     0.141 C 
ATOM      2  C   UNL     1      -2.688  -0.654  -0.440  1.00  0.00     0.030 C 
ENDROOT
BRANCH   1   3
ATOM      3  S   UNL     1      -0.693  -0.560  -2.304  1.00  0.00    -0.071 SA
BRANCH   3   4
ATOM      4  C   UNL     1      -0.308   1.020  -1.625  1.00  0.00     0.214 A 
ATOM      5  N   UNL     1       0.917   1.616  -1.603  1.00  0.00    -0.187 N 
ATOM      6  N   UNL     1       0.712   2.851  -0.963  1.00  0.00    -0.039 NA
ATOM      7  N   UNL     1      -0.540   2.913  -0.662  1.00  0.00    -0.022 NA
ATOM      8  N   UNL     1      -1.149   1.851  -1.049  1.00  0.00    -0.101 NA
BRANCH   5   9
ATOM      9  C   UNL     1       2.122   1.107  -2.108  1.00  0.00     0.075 A 
ATOM     10  C   UNL     1       2.077  -0.637  -0.306  1.00  0.00     0.047 C 
ATOM     11  C   UNL     1       2.721   0.010  -1.505  1.00  0.00    -0.025 A 
ATOM     12  C   UNL     1       3.905  -0.492  -2.008  1.00  0.00     0.005 A 
ATOM     13  C   UNL     1       2.721   1.704  -3.209  1.00  0.00    -0.025 A 
ATOM     14  C   UNL     1       4.500   0.105  -3.105  1.00  0.00     0.001 A 
ATOM     15  C   UNL     1       3.908   1.201  -3.704  1.00  0.00     0.005 A 
ATOM     16  C   UNL     1       2.078   2.900  -3.862  1.00  0.00     0.047 C 
ENDBRANCH   5   9
ENDBRANCH   3   4
ENDBRANCH   1   3
BRANCH   1  17
ATOM     17  C   UNL     1      -3.053  -1.874  -2.567  1.00  0.00     0.233 C 
ATOM     18  O   UNL     1      -2.347  -2.838  -2.773  1.00  0.00    -0.274 OA
ATOM     19  N   UNL     1      -4.361  -1.916  -2.889  1.00  0.00    -0.349 N 
ATOM     20  H   UNL     1      -4.961  -1.097  -2.714  1.00  0.00     0.163 HD
BRANCH  19  21
ATOM     21  C   UNL     1      -4.931  -3.127  -3.486  1.00  0.00     0.184 C 
BRANCH  21  22
ATOM     22  C   UNL     1      -6.378  -2.857  -3.903  1.00  0.00     0.115 C 
ATOM     23  C   UNL     1      -7.021  -4.160  -4.383  1.00  0.00     0.070 C 
ATOM     24  C   UNL     1      -7.161  -2.313  -2.706  1.00  0.00     0.070 C 
ATOM     25  C   UNL     1      -6.999  -5.188  -3.250  1.00  0.00     0.007 C 
ATOM     26  C   UNL     1      -7.139  -3.341  -1.573  1.00  0.00     0.007 C 
ATOM     27  C   UNL     1      -7.782  -4.644  -2.053  1.00  0.00     0.001 C 
BRANCH  22  28
ATOM     28  N   UNL     1      -6.399  -1.871  -4.991  1.00  0.00    -0.329 N 
ATOM     29  C   UNL     1      -5.919  -0.563  -4.525  1.00  0.00     0.262 C 
ATOM     30  C   UNL     1      -5.620  -2.342  -6.143  1.00  0.00     0.262 C 
ATOM     31  H   UNL     1      -7.375  -1.756  -5.297  1.00  0.00     0.348 HD
ATOM     32  C   UNL     1      -6.090   0.471  -5.639  1.00  0.00     0.062 C 
ATOM     33  C   UNL     1      -5.783  -1.360  -7.306  1.00  0.00     0.062 C 
ATOM     34  C   UNL     1      -5.297   0.025  -6.870  1.00  0.00     0.012 C 
ENDBRANCH  22  28
ENDBRANCH  21  22
ENDBRANCH  19  21
ENDBRANCH   1  17
TORSDOF 7
