REMARK SMILES COc1cc([C@@H]2c3cc4c(cc3[C@H]([NH2+]Cc3ccccc3F)[C@@H]3COC(=O)[C@H]23)OCO4)cc(OC)c1O
REMARK SMILES IDX 6 1 7 2 8 3 9 4 10 5 11 6 12 7 13 8 23 9 28 10 26 11 27 12
REMARK SMILES IDX 25 13 24 14 29 15 30 16 31 17 5 18 3 19 36 20 4 21 33 22
REMARK SMILES IDX 32 23 2 24 1 25 37 26 34 28 35 29 14 30 15 33 16 34 21 35
REMARK SMILES IDX 17 36 20 37 22 38 18 39 19 40
REMARK H PARENT 37 27 14 31 14 32
REMARK Flexibility Score: inf
ROOT
ATOM      1  C   UNL     1       1.872   1.868  -2.260  1.00  0.00     0.065 C 
ATOM      2  C   UNL     1       0.650   1.840  -3.135  1.00  0.00    -0.027 A 
ATOM      3  C   UNL     1       0.863   1.930  -4.514  1.00  0.00     0.055 A 
ATOM      4  C   UNL     1      -0.241   1.881  -5.347  1.00  0.00     0.166 A 
ATOM      5  C   UNL     1      -1.534   1.741  -4.818  1.00  0.00     0.166 A 
ATOM      6  C   UNL     1      -1.736   1.663  -3.451  1.00  0.00     0.060 A 
ATOM      7  C   UNL     1      -0.617   1.729  -2.614  1.00  0.00     0.017 A 
ATOM      8  C   UNL     1      -0.881   1.698  -1.147  1.00  0.00     0.221 C 
ATOM      9  C   UNL     1       0.335   1.329  -0.301  1.00  0.00     0.105 C 
ATOM     10  C   UNL     1       1.582   2.080  -0.810  1.00  0.00     0.124 C 
ATOM     11  C   UNL     1       1.344   3.498  -0.378  1.00  0.00     0.310 C 
ATOM     12  O   UNL     1       1.804   4.485  -0.902  1.00  0.00    -0.252 OA
ATOM     13  O   UNL     1       0.528   3.479   0.697  1.00  0.00    -0.465 OA
ATOM     14  C   UNL     1       0.163   2.106   1.049  1.00  0.00     0.244 C 
ATOM     15  O   UNL     1      -2.421   1.712  -5.838  1.00  0.00    -0.454 OA
ATOM     16  C   UNL     1      -1.640   1.446  -7.022  1.00  0.00     0.468 C 
ATOM     17  O   UNL     1      -0.326   1.946  -6.694  1.00  0.00    -0.454 OA
ENDROOT
BRANCH   1  18
ATOM     18  C   UNL     1       2.776   2.975  -2.735  1.00  0.00    -0.032 A 
ATOM     19  C   UNL     1       4.982   3.871  -3.032  1.00  0.00     0.164 A 
ATOM     20  C   UNL     1       4.441   5.014  -3.608  1.00  0.00     0.200 A 
ATOM     21  C   UNL     1       4.146   2.853  -2.597  1.00  0.00     0.055 A 
ATOM     22  C   UNL     1       3.063   5.133  -3.745  1.00  0.00     0.164 A 
ATOM     23  C   UNL     1       2.234   4.109  -3.312  1.00  0.00     0.055 A 
BRANCH  19  24
ATOM     24  O   UNL     1       6.330   3.750  -2.896  1.00  0.00    -0.493 OA
ATOM     25  C   UNL     1       6.816   2.547  -2.296  1.00  0.00     0.278 C 
ENDBRANCH  19  24
BRANCH  20  26
ATOM     26  O   UNL     1       5.258   6.014  -4.037  1.00  0.00    -0.502 OA
ATOM     27  H   UNL     1       5.875   5.581  -4.677  1.00  0.00     0.293 HD
ENDBRANCH  20  26
BRANCH  22  28
ATOM     28  O   UNL     1       2.528   6.250  -4.307  1.00  0.00    -0.493 OA
ATOM     29  C   UNL     1       1.104   6.303  -4.415  1.00  0.00     0.278 C 
ENDBRANCH  22  28
ENDBRANCH   1  18
BRANCH   8  30
ATOM     30  N   UNL     1      -1.347   3.035  -0.730  1.00  0.00    -0.336 N 
ATOM     31  H   UNL     1      -1.445   3.058   0.295  1.00  0.00     0.347 HD
ATOM     32  H   UNL     1      -0.657   3.743  -1.018  1.00  0.00     0.347 HD
BRANCH  30  33
ATOM     33  C   UNL     1      -2.649   3.341  -1.352  1.00  0.00     0.300 C 
BRANCH  33  34
ATOM     34  C   UNL     1      -3.099   4.709  -0.909  1.00  0.00     0.042 A 
ATOM     35  C   UNL     1      -2.578   5.839  -1.515  1.00  0.00     0.132 A 
ATOM     36  C   UNL     1      -4.036   4.836   0.099  1.00  0.00     0.012 A 
ATOM     37  C   UNL     1      -2.992   7.096  -1.107  1.00  0.00     0.040 A 
ATOM     38  F   UNL     1      -1.666   5.716  -2.505  1.00  0.00    -0.206 F 
ATOM     39  C   UNL     1      -4.444   6.091   0.510  1.00  0.00     0.001 A 
ATOM     40  C   UNL     1      -3.925   7.221  -0.095  1.00  0.00     0.003 A 
ENDBRANCH  33  34
ENDBRANCH  30  33
ENDBRANCH   8  30
TORSDOF 7
