REMARK SMILES CC(C)(O)[C@H]1OC[C@H]([C@@H]2CC[C@@]3(C)C4=CC[C@@H]5C(C)(C)[C@@H](O)CC[C@@]5(C)[C@@H]4CC[C@@]23C)C[C@@H]1O
REMARK SMILES IDX 8 1 32 2 33 3 5 4 6 5 7 6 9 7 19 8 18 9 17 10 21 11 20 12
REMARK SMILES IDX 25 13 16 14 23 15 24 16 27 17 26 18 15 19 14 20 28 21 12 22
REMARK SMILES IDX 29 23 30 24 11 25 13 26 31 27 10 28 22 29 34 31 2 33 1 34
REMARK SMILES IDX 3 35 4 36
REMARK H PARENT 22 30 34 32 4 37
REMARK Flexibility Score: inf
ROOT
ATOM      1  C   UNL     1       0.317  -5.349   2.043  1.00  0.00     0.021 C 
ATOM      2  C   UNL     1       1.486  -4.882   2.917  1.00  0.00     0.041 C 
ATOM      3  C   UNL     1       1.614  -5.819   4.122  1.00  0.00     0.146 C 
ATOM      4  C   UNL     1       1.798  -7.255   3.624  1.00  0.00     0.178 C 
ATOM      5  O   UNL     1       0.693  -7.615   2.793  1.00  0.00    -0.372 OA
ATOM      6  C   UNL     1       0.552  -6.803   1.626  1.00  0.00     0.164 C 
ENDROOT
BRANCH   1   7
ATOM      7  C   UNL     1       0.228  -4.467   0.796  1.00  0.00     0.001 C 
ATOM      8  C   UNL     1      -0.120   4.184  -0.043  1.00  0.00     0.014 C 
ATOM      9  C   UNL     1       0.424   3.206  -1.085  1.00  0.00    -0.006 C 
ATOM     10  C   UNL     1       0.508   1.787  -0.568  1.00  0.00     0.007 C 
ATOM     11  C   UNL     1      -0.400   3.312  -2.367  1.00  0.00     0.120 C 
ATOM     12  C   UNL     1       1.857   3.672  -1.442  1.00  0.00     0.014 C 
ATOM     13  C   UNL     1      -0.801   1.010  -0.539  1.00  0.00    -0.022 C 
ATOM     14  C   UNL     1       1.144   1.715   0.821  1.00  0.00     0.032 C 
ATOM     15  C   UNL     1      -1.740   2.598  -2.236  1.00  0.00     0.033 C 
ATOM     16  C   UNL     1      -1.515   1.129  -1.889  1.00  0.00     0.010 C 
ATOM     17  C   UNL     1      -0.489  -0.460  -0.288  1.00  0.00     0.021 C 
ATOM     18  C   UNL     1      -1.732   1.510   0.564  1.00  0.00     0.012 C 
ATOM     19  C   UNL     1       1.346   0.263   1.181  1.00  0.00    -0.027 C 
ATOM     20  C   UNL     1       0.638  -0.710   0.680  1.00  0.00    -0.064 C 
ATOM     21  C   UNL     1      -1.721  -1.223   0.197  1.00  0.00     0.009 C 
ATOM     22  C   UNL     1       0.962  -2.141   1.023  1.00  0.00    -0.006 C 
ATOM     23  C   UNL     1      -1.371  -2.711   0.158  1.00  0.00     0.008 C 
ATOM     24  C   UNL     1      -0.273  -3.045   1.165  1.00  0.00    -0.020 C 
ATOM     25  C   UNL     1       1.771  -2.789  -0.122  1.00  0.00     0.012 C 
ATOM     26  C   UNL     1       1.776  -2.225   2.321  1.00  0.00     0.017 C 
ATOM     27  C   UNL     1      -0.812  -3.021   2.603  1.00  0.00     0.012 C 
ATOM     28  C   UNL     1       1.611  -4.302   0.146  1.00  0.00     0.005 C 
BRANCH  11  29
ATOM     29  O   UNL     1       0.342   2.754  -3.456  1.00  0.00    -0.393 OA
ATOM     30  H   UNL     1       0.538   1.802  -3.270  1.00  0.00     0.210 HD
ENDBRANCH  11  29
ENDBRANCH   1   7
BRANCH   3  31
ATOM     31  O   UNL     1       2.745  -5.437   4.907  1.00  0.00    -0.390 OA
ATOM     32  H   UNL     1       2.627  -4.506   5.225  1.00  0.00     0.211 HD
ENDBRANCH   3  31
BRANCH   4  33
ATOM     33  C   UNL     1       1.867  -8.205   4.822  1.00  0.00     0.088 C 
ATOM     34  C   UNL     1       0.607  -8.041   5.675  1.00  0.00     0.045 C 
ATOM     35  C   UNL     1       1.961  -9.648   4.323  1.00  0.00     0.045 C 
BRANCH  33  36
ATOM     36  O   UNL     1       3.019  -7.896   5.609  1.00  0.00    -0.388 OA
ATOM     37  H   UNL     1       2.958  -6.963   5.933  1.00  0.00     0.211 HD
ENDBRANCH  33  36
ENDBRANCH   4  33
TORSDOF 5
