REMARK SMILES C[N@H+]1CCC[C@@H]1CCn1cc(C2=C(c3c[nH]c4ccccc34)C(=O)NC2=O)c2ccccc21
REMARK SMILES IDX 9 1 10 2 11 3 28 4 33 5 32 6 31 7 30 8 29 9 8 10 7 11 6 12
REMARK SMILES IDX 1 13 2 14 3 15 4 17 5 18 12 19 26 20 13 21 25 22 27 23 23 24
REMARK SMILES IDX 24 26 14 27 22 28 15 29 17 30 21 31 16 32 18 33 20 34 19 36
REMARK H PARENT 2 16 25 25 16 35
REMARK Flexibility Score: inf
ROOT
ATOM      1  N   UNL     1       0.883   5.552   1.059  1.00  0.00    -0.347 N 
ATOM      2  C   UNL     1       0.128   5.972   2.111  1.00  0.00     0.095 A 
ATOM      3  C   UNL     1       0.620   7.152   2.587  1.00  0.00     0.014 A 
ATOM      4  C   UNL     1       1.779   7.493   1.743  1.00  0.00     0.008 A 
ATOM      5  C   UNL     1       1.894   6.455   0.804  1.00  0.00     0.049 A 
ATOM      6  C   UNL     1       2.913   6.500  -0.141  1.00  0.00     0.027 A 
ATOM      7  C   UNL     1       3.797   7.558  -0.150  1.00  0.00     0.002 A 
ATOM      8  C   UNL     1       3.682   8.582   0.778  1.00  0.00     0.001 A 
ATOM      9  C   UNL     1       2.679   8.556   1.723  1.00  0.00     0.011 A 
ENDROOT
BRANCH   1  10
ATOM     10  C   UNL     1       0.650   4.320   0.301  1.00  0.00     0.128 C 
BRANCH  10  11
ATOM     11  C   UNL     1       1.532   3.202   0.862  1.00  0.00     0.087 C 
BRANCH  11  12
ATOM     12  C   UNL     1       1.389   1.953  -0.011  1.00  0.00     0.185 C 
ATOM     13  C   UNL     1      -0.804   1.948  -1.056  1.00  0.00     0.332 C 
ATOM     14  N   UNL     1       0.010   1.432   0.075  1.00  0.00    -0.335 N 
ATOM     15  C   UNL     1       0.056  -0.039   0.038  1.00  0.00     0.262 C 
ATOM     16  H   UNL     1      -0.425   1.743   0.956  1.00  0.00     0.348 HD
ATOM     17  C   UNL     1       1.544  -0.445  -0.020  1.00  0.00     0.067 C 
ATOM     18  C   UNL     1       2.270   0.805   0.542  1.00  0.00     0.071 C 
ENDBRANCH  11  12
ENDBRANCH  10  11
ENDBRANCH   1  10
BRANCH   3  19
ATOM     19  C   UNL     1       0.092   7.934   3.717  1.00  0.00     0.063 C 
ATOM     20  C   UNL     1      -0.688   9.186   3.643  1.00  0.00     0.259 C 
ATOM     21  C   UNL     1       0.233   7.647   5.070  1.00  0.00     0.063 C 
ATOM     22  N   UNL     1      -0.984   9.582   4.893  1.00  0.00    -0.288 N 
ATOM     23  O   UNL     1      -1.013   9.760   2.623  1.00  0.00    -0.269 OA
ATOM     24  C   UNL     1      -0.470   8.726   5.793  1.00  0.00     0.259 C 
ATOM     25  H   UNL     1      -1.528  10.424   5.128  1.00  0.00     0.173 HD
ATOM     26  O   UNL     1      -0.569   8.824   7.000  1.00  0.00    -0.269 OA
BRANCH  21  27
ATOM     27  C   UNL     1       0.940   6.499   5.663  1.00  0.00     0.013 A 
ATOM     28  C   UNL     1       0.327   5.304   6.269  1.00  0.00     0.007 A 
ATOM     29  C   UNL     1       2.290   6.331   5.753  1.00  0.00     0.092 A 
ATOM     30  C   UNL     1       1.394   4.494   6.691  1.00  0.00     0.046 A 
ATOM     31  C   UNL     1      -0.987   4.888   6.469  1.00  0.00     0.011 A 
ATOM     32  N   UNL     1       2.565   5.147   6.367  1.00  0.00    -0.361 N 
ATOM     33  C   UNL     1       1.124   3.277   7.309  1.00  0.00     0.027 A 
ATOM     34  C   UNL     1      -1.234   3.680   7.084  1.00  0.00     0.001 A 
ATOM     35  H   UNL     1       3.511   4.791   6.562  1.00  0.00     0.166 HD
ATOM     36  C   UNL     1      -0.181   2.879   7.502  1.00  0.00     0.002 A 
ENDBRANCH  21  27
ENDBRANCH   3  19
TORSDOF 5
