REMARK SMILES C[C@H](Sc1ncccc1C(=O)O[C@H](C)C(=O)N[C@@H]1CCCC[C@H]1C)C(=O)N[C@@H]1CCCC[C@@H]1C
REMARK SMILES IDX 9 1 8 2 7 3 6 4 5 5 4 6 10 7 11 8 12 9 13 10 14 11 15 12
REMARK SMILES IDX 17 13 16 15 18 16 24 17 23 18 22 19 19 20 21 21 20 22 3 23
REMARK SMILES IDX 2 24 1 25 25 26 26 27 27 28 28 30 33 31 29 32 32 33 34 34
REMARK SMILES IDX 30 35 31 36
REMARK H PARENT 17 14 27 29
REMARK Flexibility Score: inf
ROOT
ATOM      1  C   UNL     1      -6.419   1.165   1.078  1.00  0.00     0.092 A 
ATOM      2  C   UNL     1      -7.455   0.222   1.103  1.00  0.00     0.020 A 
ATOM      3  C   UNL     1      -7.172  -1.075   0.713  1.00  0.00     0.021 A 
ATOM      4  C   UNL     1      -5.888  -1.402   0.312  1.00  0.00     0.112 A 
ATOM      5  N   UNL     1      -4.928  -0.500   0.290  1.00  0.00    -0.249 NA
ATOM      6  C   UNL     1      -5.141   0.755   0.658  1.00  0.00     0.111 A 
ENDROOT
BRANCH   1   7
ATOM      7  C   UNL     1      -6.665   2.559   1.482  1.00  0.00     0.341 C 
ATOM      8  O   UNL     1      -5.759   3.368   1.455  1.00  0.00    -0.246 OA
BRANCH   7   9
ATOM      9  O   UNL     1      -7.895   2.938   1.883  1.00  0.00    -0.449 OA
BRANCH   9  10
ATOM     10  C   UNL     1      -8.064   4.328   2.267  1.00  0.00     0.262 C 
ATOM     11  C   UNL     1      -7.784   4.481   3.763  1.00  0.00     0.064 C 
BRANCH  10  12
ATOM     12  C   UNL     1      -9.477   4.762   1.974  1.00  0.00     0.261 C 
ATOM     13  N   UNL     1      -9.839   6.047   2.156  1.00  0.00    -0.350 N 
ATOM     14  H   UNL     1      -9.149   6.733   2.495  1.00  0.00     0.163 HD
ATOM     15  O   UNL     1     -10.289   3.954   1.574  1.00  0.00    -0.271 OA
BRANCH  13  16
ATOM     16  C   UNL     1     -11.213   6.469   1.871  1.00  0.00     0.085 C 
ATOM     17  C   UNL     1     -11.412   7.386   4.186  1.00  0.00     0.010 C 
ATOM     18  C   UNL     1     -11.546   7.713   2.697  1.00  0.00     0.008 C 
ATOM     19  C   UNL     1     -12.981   8.153   2.400  1.00  0.00     0.005 C 
ATOM     20  C   UNL     1     -11.347   6.795   0.382  1.00  0.00     0.025 C 
ATOM     21  C   UNL     1     -13.115   8.479   0.911  1.00  0.00     0.000 C 
ATOM     22  C   UNL     1     -12.782   7.236   0.084  1.00  0.00     0.002 C 
ENDBRANCH  13  16
ENDBRANCH  10  12
ENDBRANCH   9  10
ENDBRANCH   7   9
ENDBRANCH   1   7
BRANCH   6  23
ATOM     23  S   UNL     1      -3.818   1.918   0.614  1.00  0.00    -0.092 SA
BRANCH  23  24
ATOM     24  C   UNL     1      -2.482   0.853   0.018  1.00  0.00     0.139 C 
ATOM     25  C   UNL     1      -2.799   0.384  -1.403  1.00  0.00     0.030 C 
BRANCH  24  26
ATOM     26  C   UNL     1      -1.187   1.624   0.017  1.00  0.00     0.233 C 
ATOM     27  O   UNL     1      -1.204   2.837   0.023  1.00  0.00    -0.274 OA
ATOM     28  N   UNL     1      -0.011   0.966   0.007  1.00  0.00    -0.352 N 
ATOM     29  H   UNL     1       0.003  -0.064   0.006  1.00  0.00     0.163 HD
BRANCH  28  30
ATOM     30  C   UNL     1       1.248   1.716  -0.001  1.00  0.00     0.084 C 
ATOM     31  C   UNL     1       2.361   0.850   0.594  1.00  0.00     0.008 C 
ATOM     32  C   UNL     1       1.608   2.092  -1.439  1.00  0.00     0.025 C 
ATOM     33  C   UNL     1       2.519  -0.422  -0.242  1.00  0.00     0.005 C 
ATOM     34  C   UNL     1       2.000   0.473   2.032  1.00  0.00     0.010 C 
ATOM     35  C   UNL     1       1.766   0.821  -2.275  1.00  0.00     0.002 C 
ATOM     36  C   UNL     1       2.879  -0.045  -1.681  1.00  0.00     0.000 C 
ENDBRANCH  28  30
ENDBRANCH  24  26
ENDBRANCH  23  24
ENDBRANCH   6  23
TORSDOF 9
