REMARK SMILES O=C(C[C@H](c1ccccc1)c1cc(Br)ccc1O)NCC1(c2ccccc2)CCOCC1
REMARK SMILES IDX 2 1 1 2 19 3 3 5 4 6 5 7 8 8 9 9 7 10 10 11 6 12 11 13 17 14
REMARK SMILES IDX 12 15 16 16 13 17 15 18 14 19 18 20 20 22 21 23 32 24 28 25
REMARK SMILES IDX 31 26 29 27 30 28 22 29 27 30 23 31 26 32 24 33 25 34
REMARK H PARENT 19 4 18 21
REMARK Flexibility Score: inf
ROOT
ATOM      1  C   UNL     1      -0.097   1.596   0.024  1.00  0.00     0.220 C 
ATOM      2  O   UNL     1       0.149   0.419   0.189  1.00  0.00    -0.275 OA
ATOM      3  N   UNL     1       0.896   2.455  -0.282  1.00  0.00    -0.355 N 
ATOM      4  H   UNL     1       0.687   3.454  -0.423  1.00  0.00     0.163 HD
ENDROOT
BRANCH   1   5
ATOM      5  C   UNL     1      -1.512   2.095   0.155  1.00  0.00     0.113 C 
BRANCH   5   6
ATOM      6  C   UNL     1      -2.436   0.925   0.498  1.00  0.00     0.062 C 
BRANCH   6   7
ATOM      7  C   UNL     1      -3.866   1.401   0.509  1.00  0.00    -0.040 A 
ATOM      8  C   UNL     1      -6.490   2.273   0.528  1.00  0.00     0.000 A 
ATOM      9  C   UNL     1      -6.137   1.159  -0.211  1.00  0.00     0.000 A 
ATOM     10  C   UNL     1      -5.530   2.951   1.256  1.00  0.00     0.000 A 
ATOM     11  C   UNL     1      -4.824   0.726  -0.224  1.00  0.00     0.004 A 
ATOM     12  C   UNL     1      -4.219   2.515   1.247  1.00  0.00     0.004 A 
ENDBRANCH   6   7
BRANCH   6  13
ATOM     13  C   UNL     1      -2.077   0.384   1.858  1.00  0.00     0.003 A 
ATOM     14  C   UNL     1      -1.795  -0.965   2.016  1.00  0.00     0.119 A 
ATOM     15  C   UNL     1      -2.023   1.232   2.948  1.00  0.00     0.023 A 
ATOM     16  C   UNL     1      -1.464  -1.461   3.269  1.00  0.00     0.047 A 
ATOM     17  C   UNL     1      -1.698   0.735   4.197  1.00  0.00     0.018 A 
ATOM     18  C   UNL     1      -1.416  -0.611   4.356  1.00  0.00     0.019 A 
ATOM     19  Br  UNL     1      -1.633   1.896   5.688  1.00  0.00    -0.051 Br
BRANCH  14  20
ATOM     20  O   UNL     1      -1.843  -1.800   0.944  1.00  0.00    -0.508 OA
ATOM     21  H   UNL     1      -1.218  -1.405   0.285  1.00  0.00     0.293 HD
ENDBRANCH  14  20
ENDBRANCH   6  13
ENDBRANCH   5   6
ENDBRANCH   1   5
BRANCH   3  22
ATOM     22  C   UNL     1       2.271   1.968  -0.416  1.00  0.00     0.127 C 
BRANCH  22  23
ATOM     23  C   UNL     1       3.178   3.117  -0.861  1.00  0.00     0.017 C 
ATOM     24  C   UNL     1       4.623   2.620  -0.962  1.00  0.00     0.042 C 
ATOM     25  C   UNL     1       2.725   3.624  -2.234  1.00  0.00     0.042 C 
ATOM     26  C   UNL     1       4.707   1.534  -2.037  1.00  0.00     0.161 C 
ATOM     27  C   UNL     1       2.884   2.498  -3.261  1.00  0.00     0.161 C 
ATOM     28  O   UNL     1       4.244   2.061  -3.282  1.00  0.00    -0.381 OA
BRANCH  23  29
ATOM     29  C   UNL     1       3.099   4.239   0.142  1.00  0.00    -0.040 A 
ATOM     30  C   UNL     1       2.574   5.463  -0.230  1.00  0.00     0.004 A 
ATOM     31  C   UNL     1       3.547   4.043   1.435  1.00  0.00     0.004 A 
ATOM     32  C   UNL     1       2.501   6.492   0.691  1.00  0.00     0.000 A 
ATOM     33  C   UNL     1       3.480   5.074   2.353  1.00  0.00     0.000 A 
ATOM     34  C   UNL     1       2.954   6.297   1.982  1.00  0.00     0.000 A 
ENDBRANCH  23  29
ENDBRANCH  22  23
ENDBRANCH   3  22
TORSDOF 8
