REMARK SMILES NS(=O)(=O)c1ccc(CNC(=O)/C=C/c2cn(-c3ccccc3)nc2-c2ccccc2)s1
REMARK SMILES IDX 11 1 12 2 10 3 13 5 14 6 15 7 25 8 24 9 17 10 16 11 26 12
REMARK SMILES IDX 29 13 30 14 28 15 31 16 27 17 18 18 23 19 19 20 22 21 20 22
REMARK SMILES IDX 21 23 9 24 8 25 32 26 7 27 5 28 6 29 2 30 3 31 4 32 1 33
REMARK H PARENT 10 4 1 34 1 35
REMARK Flexibility Score: inf
ROOT
ATOM      1  C   UNL     1       5.498  -0.954  -1.682  1.00  0.00     0.244 C 
ATOM      2  O   UNL     1       6.259  -1.205  -0.765  1.00  0.00    -0.270 OA
ATOM      3  N   UNL     1       4.242  -0.541  -1.422  1.00  0.00    -0.348 N 
ATOM      4  H   UNL     1       3.599  -0.328  -2.198  1.00  0.00     0.164 HD
ENDROOT
BRANCH   1   5
ATOM      5  C   UNL     1       5.935  -1.094  -3.024  1.00  0.00     0.072 C 
ATOM      6  C   UNL     1       7.195  -1.508  -3.285  1.00  0.00     0.018 C 
BRANCH   6   7
ATOM      7  C   UNL     1       7.646  -1.654  -4.673  1.00  0.00     0.021 A 
ATOM      8  C   UNL     1       8.975  -2.084  -5.126  1.00  0.00     0.100 A 
ATOM      9  N   UNL     1       8.954  -2.080  -6.440  1.00  0.00    -0.167 NA
ATOM     10  N   UNL     1       7.693  -1.664  -6.877  1.00  0.00    -0.240 N 
ATOM     11  C   UNL     1       6.907  -1.408  -5.815  1.00  0.00     0.123 A 
BRANCH   8  12
ATOM     12  C   UNL     1      10.122  -2.456  -4.264  1.00  0.00     0.003 A 
ATOM     13  C   UNL     1      12.265  -3.151  -2.654  1.00  0.00     0.000 A 
ATOM     14  C   UNL     1      11.400  -2.148  -2.255  1.00  0.00     0.001 A 
ATOM     15  C   UNL     1      12.063  -3.808  -3.854  1.00  0.00     0.001 A 
ATOM     16  C   UNL     1      10.333  -1.794  -3.055  1.00  0.00     0.010 A 
ATOM     17  C   UNL     1      10.997  -3.466  -4.661  1.00  0.00     0.010 A 
ENDBRANCH   8  12
BRANCH  10  18
ATOM     18  C   UNL     1       7.306  -1.534  -8.217  1.00  0.00     0.065 A 
ATOM     19  C   UNL     1       8.207  -1.827  -9.233  1.00  0.00     0.028 A 
ATOM     20  C   UNL     1       6.020  -1.117  -8.533  1.00  0.00     0.028 A 
ATOM     21  C   UNL     1       7.822  -1.698 -10.553  1.00  0.00     0.002 A 
ATOM     22  C   UNL     1       5.644  -0.984  -9.855  1.00  0.00     0.002 A 
ATOM     23  C   UNL     1       6.542  -1.277 -10.864  1.00  0.00     0.000 A 
ENDBRANCH  10  18
ENDBRANCH   6   7
ENDBRANCH   1   5
BRANCH   3  24
ATOM     24  C   UNL     1       3.791  -0.395  -0.036  1.00  0.00     0.163 C 
BRANCH  24  25
ATOM     25  C   UNL     1       2.360   0.076  -0.020  1.00  0.00     0.025 A 
ATOM     26  S   UNL     1       1.725   1.744  -0.005  1.00  0.00    -0.126 S 
ATOM     27  C   UNL     1       1.220  -0.658  -0.013  1.00  0.00     0.019 A 
ATOM     28  C   UNL     1      -0.016   1.351   0.009  1.00  0.00     0.134 A 
ATOM     29  C   UNL     1       0.002  -0.004   0.002  1.00  0.00     0.034 A 
BRANCH  28  30
ATOM     30  S   UNL     1      -1.400   2.442   0.022  1.00  0.00     0.247 S 
ATOM     31  O   UNL     1      -0.951   3.675  -0.524  1.00  0.00    -0.206 OA
ATOM     32  O   UNL     1      -2.493   1.719  -0.527  1.00  0.00    -0.206 OA
BRANCH  30  33
ATOM     33  N   UNL     1      -1.776   2.737   1.608  1.00  0.00    -0.224 NA
ATOM     34  H   UNL     1      -2.051   1.959   2.225  1.00  0.00     0.137 HD
ATOM     35  H   UNL     1      -1.736   3.697   1.977  1.00  0.00     0.137 HD
ENDBRANCH  30  33
ENDBRANCH  28  30
ENDBRANCH  24  25
ENDBRANCH   3  24
TORSDOF 8
