REMARK SMILES O=C(CC[N@H+]1Cc2ccccc2O[C@@H](c2ccccc2F)C1)NCC1(c2ccccc2)CCOCC1
REMARK SMILES IDX 4 1 3 2 2 3 23 4 1 6 24 7 25 8 36 9 32 10 35 11 33 12 34 13
REMARK SMILES IDX 26 14 29 15 30 16 28 17 31 18 27 19 5 20 22 22 6 24 7 25
REMARK SMILES IDX 12 26 8 27 11 28 9 29 10 30 13 31 14 32 15 34 20 35 16 36
REMARK SMILES IDX 19 37 21 38 17 39 18 40
REMARK H PARENT 23 5 5 21
REMARK Flexibility Score: 80.00
ROOT
ATOM      1  C   UNL     1       4.712   4.893  -2.780  1.00  0.00     0.272 C 
ENDROOT
BRANCH   1   2
ATOM      2  C   UNL     1       5.878   5.847  -3.046  1.00  0.00     0.161 C 
BRANCH   2   3
ATOM      3  C   UNL     1       6.416   5.608  -4.434  1.00  0.00     0.225 C 
ATOM      4  N   UNL     1       7.453   6.338  -4.890  1.00  0.00    -0.355 N 
ATOM      5  H   UNL     1       7.878   7.060  -4.290  1.00  0.00     0.163 HD
ATOM      6  O   UNL     1       5.915   4.759  -5.140  1.00  0.00    -0.275 OA
BRANCH   4   7
ATOM      7  C   UNL     1       7.975   6.106  -6.238  1.00  0.00     0.127 C 
BRANCH   7   8
ATOM      8  C   UNL     1       9.211   6.979  -6.464  1.00  0.00     0.017 C 
ATOM      9  C   UNL     1      10.311   6.576  -5.476  1.00  0.00     0.042 C 
ATOM     10  C   UNL     1       9.725   6.782  -7.893  1.00  0.00     0.042 C 
ATOM     11  C   UNL     1      10.724   5.127  -5.748  1.00  0.00     0.161 C 
ATOM     12  C   UNL     1      10.162   5.323  -8.071  1.00  0.00     0.161 C 
ATOM     13  O   UNL     1      11.162   5.004  -7.103  1.00  0.00    -0.381 OA
BRANCH   8  14
ATOM     14  C   UNL     1       8.851   8.427  -6.253  1.00  0.00    -0.040 A 
ATOM     15  C   UNL     1       8.190  11.084  -5.866  1.00  0.00     0.000 A 
ATOM     16  C   UNL     1       9.199  10.506  -5.117  1.00  0.00     0.000 A 
ATOM     17  C   UNL     1       7.512  10.333  -6.808  1.00  0.00     0.000 A 
ATOM     18  C   UNL     1       9.526   9.177  -5.307  1.00  0.00     0.004 A 
ATOM     19  C   UNL     1       7.843   9.005  -7.001  1.00  0.00     0.004 A 
ENDBRANCH   8  14
ENDBRANCH   7   8
ENDBRANCH   4   7
ENDBRANCH   2   3
ENDBRANCH   1   2
BRANCH   1  20
ATOM     20  N   UNL     1       4.135   5.181  -1.460  1.00  0.00    -0.327 N 
ATOM     21  H   UNL     1       3.401   4.486  -1.266  1.00  0.00     0.348 HD
BRANCH  20  22
ATOM     22  C   UNL     1       3.490   6.491  -1.445  1.00  0.00     0.313 CG0
ATOM     23  G   UNL     1       2.598   6.714  -0.243  1.00  0.00     0.000 G0
ENDBRANCH  20  22
BRANCH  20  24
ATOM     24  C   UNL     1       5.143   5.039  -0.403  1.00  0.00     0.303 C 
BRANCH  24  25
ATOM     25  C   UNL     1       4.451   4.621   0.879  1.00  0.00     0.048 A 
ATOM     26  C   UNL     1       3.613   5.515   1.519  1.00  0.00     0.129 A 
ATOM     27  C   UNL     1       4.660   3.361   1.402  1.00  0.00     0.013 A 
ATOM     28  C   UNL     1       2.997   5.154   2.709  1.00  0.00     0.047 A 
ATOM     29  C   UNL     1       4.037   2.998   2.583  1.00  0.00     0.001 A 
ATOM     30  C   UNL     1       3.212   3.895   3.237  1.00  0.00     0.004 A 
BRANCH  26  31
ATOM     31  O   UNL     1       3.369   6.733   0.965  1.00  0.00    -0.479 OA
BRANCH  31  32
ATOM     32  C   UNL     1       2.598   6.714  -0.243  1.00  0.00     0.261 CG0
ATOM     33  G   UNL     1       3.490   6.491  -1.445  1.00  0.00     0.000 G0
BRANCH  32  34
ATOM     34  C   UNL     1       1.881   8.031  -0.395  1.00  0.00     0.034 A 
ATOM     35  C   UNL     1       0.703   8.099  -1.118  1.00  0.00     0.130 A 
ATOM     36  C   UNL     1       2.399   9.172   0.189  1.00  0.00     0.011 A 
ATOM     37  C   UNL     1       0.045   9.309  -1.256  1.00  0.00     0.039 A 
ATOM     38  F   UNL     1       0.195   6.984  -1.689  1.00  0.00    -0.207 F 
ATOM     39  C   UNL     1       1.742  10.380   0.050  1.00  0.00     0.001 A 
ATOM     40  C   UNL     1       0.568  10.450  -0.677  1.00  0.00     0.003 A 
ENDBRANCH  32  34
ENDBRANCH  31  32
ENDBRANCH  26  31
ENDBRANCH  24  25
ENDBRANCH  20  24
ENDBRANCH   1  20
TORSDOF 7
