REMARK SMILES Cc1ccc(NC(=O)c2c(C)nc3sc(C(=O)NC[C@H]4CCCO4)c(N)c3c2-c2ccc(C)o2)c(C)c1
REMARK SMILES IDX 9 1 10 2 12 3 13 4 27 5 28 6 25 7 15 8 14 9 11 10 7 11 6 12
REMARK SMILES IDX 8 14 5 15 1 16 2 17 37 18 3 19 35 20 4 21 36 22 29 23 34 24
REMARK SMILES IDX 30 25 32 26 31 27 33 28 26 29 16 32 17 33 18 34 19 36 20 37
REMARK SMILES IDX 24 38 21 39 23 40 22 41
REMARK H PARENT 6 13 26 30 26 31 18 35
REMARK Flexibility Score: inf
ROOT
ATOM      1  C   UNL     1      -8.393   9.463   0.365  1.00  0.00     0.073 A 
ATOM      2  C   UNL     1      -8.652   8.634   1.461  1.00  0.00     0.053 A 
ATOM      3  N   UNL     1      -7.943   7.543   1.654  1.00  0.00    -0.241 NA
ATOM      4  C   UNL     1      -6.972   7.184   0.837  1.00  0.00     0.127 A 
ATOM      5  C   UNL     1      -6.614   7.936  -0.305  1.00  0.00     0.047 A 
ATOM      6  C   UNL     1      -7.368   9.127  -0.539  1.00  0.00     0.044 A 
ATOM      7  C   UNL     1      -5.517   7.393  -1.085  1.00  0.00     0.066 A 
ATOM      8  C   UNL     1      -4.936   6.214  -0.666  1.00  0.00     0.118 A 
ATOM      9  S   UNL     1      -5.849   5.808   0.809  1.00  0.00    -0.108 S 
ATOM     10  C   UNL     1      -9.751   8.994   2.429  1.00  0.00     0.067 C 
ENDROOT
BRANCH   1  11
ATOM     11  C   UNL     1      -9.190  10.682   0.156  1.00  0.00     0.258 C 
ATOM     12  N   UNL     1     -10.319  10.632  -0.579  1.00  0.00    -0.322 N 
ATOM     13  H   UNL     1     -10.578   9.762  -1.065  1.00  0.00     0.170 HD
ATOM     14  O   UNL     1      -8.831  11.735   0.648  1.00  0.00    -0.269 OA
BRANCH  12  15
ATOM     15  C   UNL     1     -11.137  11.762  -0.682  1.00  0.00     0.044 A 
ATOM     16  C   UNL     1     -13.635  15.215  -0.997  1.00  0.00     0.044 C 
ATOM     17  C   UNL     1     -12.754  13.997  -0.886  1.00  0.00    -0.051 A 
ATOM     18  C   UNL     1     -12.777  13.037  -1.880  1.00  0.00     0.009 A 
ATOM     19  C   UNL     1     -11.925  13.843   0.210  1.00  0.00     0.005 A 
ATOM     20  C   UNL     1     -11.967  11.922  -1.784  1.00  0.00    -0.027 A 
ATOM     21  C   UNL     1     -11.117  12.729   0.315  1.00  0.00     0.027 A 
ATOM     22  C   UNL     1     -11.988  10.878  -2.870  1.00  0.00     0.046 C 
ENDBRANCH  12  15
ENDBRANCH   1  11
BRANCH   6  23
ATOM     23  C   UNL     1      -7.078   9.983  -1.697  1.00  0.00     0.135 A 
ATOM     24  O   UNL     1      -7.232   9.642  -2.993  1.00  0.00    -0.461 OA
ATOM     25  C   UNL     1      -6.611  11.265  -1.650  1.00  0.00     0.051 A 
ATOM     26  C   UNL     1      -6.870  10.672  -3.771  1.00  0.00     0.101 A 
ATOM     27  C   UNL     1      -6.477  11.695  -2.982  1.00  0.00     0.046 A 
ATOM     28  C   UNL     1      -6.898  10.687  -5.277  1.00  0.00     0.087 C 
ENDBRANCH   6  23
BRANCH   7  29
ATOM     29  N   UNL     1      -5.066   8.041  -2.226  1.00  0.00    -0.397 N 
ATOM     30  H   UNL     1      -5.518   8.919  -2.521  1.00  0.00     0.156 HD
ATOM     31  H   UNL     1      -4.287   7.651  -2.775  1.00  0.00     0.156 HD
ENDBRANCH   7  29
BRANCH   8  32
ATOM     32  C   UNL     1      -3.868   5.500  -1.262  1.00  0.00     0.263 C 
ATOM     33  O   UNL     1      -3.348   5.920  -2.280  1.00  0.00    -0.268 OA
ATOM     34  N   UNL     1      -3.426   4.357  -0.702  1.00  0.00    -0.349 N 
ATOM     35  H   UNL     1      -3.865   4.002   0.159  1.00  0.00     0.163 HD
BRANCH  34  36
ATOM     36  C   UNL     1      -2.320   3.619  -1.318  1.00  0.00     0.148 C 
BRANCH  36  37
ATOM     37  C   UNL     1      -2.017   2.369  -0.490  1.00  0.00     0.137 C 
ATOM     38  O   UNL     1      -1.542   2.738   0.823  1.00  0.00    -0.376 OA
ATOM     39  C   UNL     1      -0.853   1.575  -1.123  1.00  0.00     0.036 C 
ATOM     40  C   UNL     1      -0.835   1.576   1.315  1.00  0.00     0.160 C 
ATOM     41  C   UNL     1      -0.060   1.041   0.091  1.00  0.00     0.031 C 
ENDBRANCH  36  37
ENDBRANCH  34  36
ENDBRANCH   8  32
TORSDOF 7
