REMARK SMILES [H]/N=C1/S/C(=C/c2sc(N)c(C(=O)OCC)c2-c2ccccc2)C(c2ccccc2)=C1C(=O)OCC
REMARK SMILES IDX 6 1 5 2 24 3 31 4 3 5 2 6 4 7 1 8 7 9 11 10 9 11 17 12 8 13
REMARK SMILES IDX 12 14 13 15 14 16 15 17 16 18 10 19 18 22 23 23 19 24 22 25
REMARK SMILES IDX 20 26 21 27 25 28 30 29 26 30 29 31 27 32 28 33 32 34 33 35
REMARK SMILES IDX 34 36 35 37 36 38
REMARK H PARENT 10 20 10 21
REMARK Flexibility Score: inf
ROOT
ATOM      1  C   UNL     1       0.801   5.543   2.384  1.00  0.00     0.036 C 
ATOM      2  C   UNL     1       0.013   6.019   1.349  1.00  0.00     0.024 C 
ATOM      3  C   UNL     1      -0.832   5.289   0.489  1.00  0.00     0.013 C 
ATOM      4  C   UNL     1      -1.539   5.973  -0.481  1.00  0.00     0.100 C 
ATOM      5  C   UNL     1      -1.339   7.429  -0.534  1.00  0.00     0.107 C 
ATOM      6  N   UNL     1      -1.881   8.306  -1.347  1.00  0.00    -0.293 NA
ATOM      7  S   UNL     1      -0.172   7.702   0.788  1.00  0.00    -0.069 SA
ATOM      8  H   UNL     1      -2.530   7.885  -2.027  1.00  0.00     0.188 HD
ENDROOT
BRANCH   1   9
ATOM      9  C   UNL     1       0.989   4.164   2.544  1.00  0.00     0.039 A 
ATOM     10  C   UNL     1       1.041   2.012   3.561  1.00  0.00     0.102 A 
ATOM     11  C   UNL     1       1.510   1.545   2.329  1.00  0.00     0.102 A 
ATOM     12  C   UNL     1       0.774   3.377   3.682  1.00  0.00     0.017 A 
ATOM     13  S   UNL     1       1.571   2.974   1.351  1.00  0.00    -0.118 S 
BRANCH  10  14
ATOM     14  C   UNL     1       0.844   1.100   4.689  1.00  0.00     0.341 C 
ATOM     15  O   UNL     1       1.754   0.892   5.470  1.00  0.00    -0.246 OA
BRANCH  14  16
ATOM     16  O   UNL     1      -0.346   0.490   4.864  1.00  0.00    -0.462 OA
BRANCH  16  17
ATOM     17  C   UNL     1      -0.470  -0.401   6.003  1.00  0.00     0.230 C 
ATOM     18  C   UNL     1      -1.879  -0.995   6.036  1.00  0.00     0.049 C 
ENDBRANCH  16  17
ENDBRANCH  14  16
ENDBRANCH  10  14
BRANCH  11  19
ATOM     19  N   UNL     1       1.842   0.260   1.977  1.00  0.00    -0.390 N 
ATOM     20  H   UNL     1       1.722  -0.427   2.735  1.00  0.00     0.157 HD
ATOM     21  H   UNL     1       2.183  -0.017   1.045  1.00  0.00     0.157 HD
ENDBRANCH  11  19
BRANCH  12  22
ATOM     22  C   UNL     1       0.283   3.962   4.948  1.00  0.00    -0.016 A 
ATOM     23  C   UNL     1      -0.994   4.523   5.013  1.00  0.00     0.009 A 
ATOM     24  C   UNL     1       1.093   3.950   6.086  1.00  0.00     0.009 A 
ATOM     25  C   UNL     1      -1.446   5.067   6.197  1.00  0.00     0.001 A 
ATOM     26  C   UNL     1       0.631   4.503   7.262  1.00  0.00     0.001 A 
ATOM     27  C   UNL     1      -0.636   5.058   7.319  1.00  0.00     0.000 A 
ENDBRANCH  12  22
ENDBRANCH   1   9
BRANCH   3  28
ATOM     28  C   UNL     1      -0.962   3.823   0.626  1.00  0.00    -0.016 A 
ATOM     29  C   UNL     1      -1.577   3.276   1.754  1.00  0.00     0.009 A 
ATOM     30  C   UNL     1      -0.470   2.979  -0.371  1.00  0.00     0.009 A 
ATOM     31  C   UNL     1      -1.700   1.908   1.874  1.00  0.00     0.001 A 
ATOM     32  C   UNL     1      -0.595   1.612  -0.236  1.00  0.00     0.001 A 
ATOM     33  C   UNL     1      -1.206   1.077   0.884  1.00  0.00     0.000 A 
ENDBRANCH   3  28
BRANCH   4  34
ATOM     34  C   UNL     1      -2.412   5.306  -1.377  1.00  0.00     0.341 C 
ATOM     35  O   UNL     1      -2.554   4.100  -1.303  1.00  0.00    -0.246 OA
BRANCH  34  36
ATOM     36  O   UNL     1      -3.086   6.009  -2.311  1.00  0.00    -0.462 OA
BRANCH  36  37
ATOM     37  C   UNL     1      -3.948   5.273  -3.180  1.00  0.00     0.230 C 
ATOM     38  C   UNL     1      -4.620   6.232  -4.164  1.00  0.00     0.049 C 
ENDBRANCH  36  37
ENDBRANCH  34  36
ENDBRANCH   4  34
TORSDOF 10
