REMARK SMILES Cn1ccnc1[C@H](NC(=O)c1ccc2c(=O)n3c(nc2c1)CCCCCC3)c1ccccc1
REMARK SMILES IDX 11 1 12 2 13 3 14 4 20 5 21 6 19 7 18 8 17 9 15 10 16 11
REMARK SMILES IDX 9 12 8 13 10 15 7 16 6 17 1 18 2 19 3 20 5 21 4 22 28 23
REMARK SMILES IDX 33 24 29 25 32 26 30 27 31 28 22 29 23 30 24 31 27 33 26 34
REMARK SMILES IDX 25 35
REMARK H PARENT 8 14
REMARK Flexibility Score: 90.00
ROOT
ATOM      1  C   UNL     1       3.716  -2.345   3.214  1.00  0.00     0.042 A 
ATOM      2  C   UNL     1       5.042  -2.229   2.784  1.00  0.00     0.015 A 
ATOM      3  C   UNL     1       6.073  -2.355   3.672  1.00  0.00     0.017 A 
ATOM      4  C   UNL     1       5.811  -2.613   5.014  1.00  0.00     0.066 A 
ATOM      5  C   UNL     1       4.479  -2.739   5.471  1.00  0.00     0.079 A 
ATOM      6  C   UNL     1       3.433  -2.592   4.555  1.00  0.00     0.043 A 
ATOM      7  N   UNL     1       4.274  -3.039   6.773  1.00  0.00    -0.234 NA
ATOM      8  C   UNL     1       5.255  -3.276   7.609  1.00  0.00     0.112 A 
ATOM      9  N   UNL     1       6.548  -3.117   7.269  1.00  0.00    -0.296 N 
ATOM     10  C   UNL     1       6.888  -2.759   6.002  1.00  0.00     0.261 A 
ATOM     11  O   UNL     1       8.057  -2.591   5.712  1.00  0.00    -0.269 OA
ENDROOT
BRANCH   1  12
ATOM     12  C   UNL     1       2.611  -2.198   2.237  1.00  0.00     0.252 C 
ATOM     13  N   UNL     1       2.886  -1.954   0.940  1.00  0.00    -0.338 N 
ATOM     14  H   UNL     1       3.864  -1.870   0.628  1.00  0.00     0.164 HD
ATOM     15  O   UNL     1       1.457  -2.297   2.605  1.00  0.00    -0.269 OA
BRANCH  13  16
ATOM     16  C   UNL     1       1.793  -1.809  -0.025  1.00  0.00     0.179 C 
BRANCH  16  17
ATOM     17  C   UNL     1       1.297  -0.386  -0.012  1.00  0.00     0.135 A 
ATOM     18  C   UNL     1      -1.165  -0.889   0.008  1.00  0.00     0.151 C 
ATOM     19  N   UNL     1       0.002  -0.004   0.002  1.00  0.00    -0.336 N 
ATOM     20  C   UNL     1      -0.017   1.365   0.009  1.00  0.00     0.107 A 
ATOM     21  N   UNL     1       2.048   0.681  -0.014  1.00  0.00    -0.239 NA
ATOM     22  C   UNL     1       1.267   1.772  -0.001  1.00  0.00     0.131 A 
ENDBRANCH  16  17
BRANCH  16  23
ATOM     23  C   UNL     1       2.293  -2.154  -1.404  1.00  0.00    -0.018 A 
ATOM     24  C   UNL     1       1.492  -2.877  -2.269  1.00  0.00     0.006 A 
ATOM     25  C   UNL     1       3.550  -1.743  -1.807  1.00  0.00     0.006 A 
ATOM     26  C   UNL     1       1.951  -3.194  -3.534  1.00  0.00     0.000 A 
ATOM     27  C   UNL     1       4.010  -2.064  -3.071  1.00  0.00     0.000 A 
ATOM     28  C   UNL     1       3.209  -2.788  -3.935  1.00  0.00     0.000 A 
ENDBRANCH  16  23
ENDBRANCH  13  16
ENDBRANCH   1  12
BRANCH   8  29
ATOM     29  C   UNL     1       4.881  -3.800   8.967  1.00  0.00     0.075 C 
BRANCH  29  30
ATOM     30  C   UNL     1       5.679  -3.095  10.075  1.00  0.00     0.008 C 
BRANCH  30  31
ATOM     31  C   UNL     1       6.665  -4.092  10.684  1.00  0.00     0.001 CG0
ATOM     32  G   UNL     1       7.075  -5.210   9.741  1.00  0.00     0.000 G0
ENDBRANCH  30  31
ENDBRANCH  29  30
ENDBRANCH   8  29
BRANCH   9  33
ATOM     33  C   UNL     1       7.670  -3.285   8.213  1.00  0.00     0.127 C 
BRANCH  33  34
ATOM     34  C   UNL     1       7.833  -4.786   8.489  1.00  0.00     0.022 C 
BRANCH  34  35
ATOM     35  C   UNL     1       7.075  -5.210   9.741  1.00  0.00     0.002 CG0
ATOM     36  G   UNL     1       6.665  -4.092  10.684  1.00  0.00     0.000 G0
ENDBRANCH  34  35
ENDBRANCH  33  34
ENDBRANCH   9  33
TORSDOF 4
