REMARK SMILES CCCCn1cc(C(=O)c2ccccc2O)cc1-c1nc2ccccc2c(=O)[nH]1
REMARK SMILES IDX 5 1 6 2 7 3 17 4 18 5 4 6 3 7 2 8 1 9 19 10 20 11 29 12
REMARK SMILES IDX 21 13 27 14 26 16 22 17 28 18 25 19 23 20 24 21 8 22 9 23
REMARK SMILES IDX 10 24 15 25 11 26 14 27 12 28 13 29 16 30
REMARK H PARENT 29 15 16 31
REMARK Flexibility Score: inf
ROOT
ATOM      1  N   UNL     1      -0.568   1.294  -3.700  1.00  0.00    -0.344 N 
ATOM      2  C   UNL     1      -1.519   0.701  -4.443  1.00  0.00     0.098 A 
ATOM      3  C   UNL     1      -1.962   1.607  -5.388  1.00  0.00     0.041 A 
ATOM      4  C   UNL     1      -1.230   2.802  -5.191  1.00  0.00     0.044 A 
ATOM      5  C   UNL     1      -0.385   2.585  -4.145  1.00  0.00     0.085 A 
ENDROOT
BRANCH   1   6
ATOM      6  C   UNL     1       0.155   0.669  -2.591  1.00  0.00     0.122 C 
BRANCH   6   7
ATOM      7  C   UNL     1      -0.461   1.116  -1.264  1.00  0.00     0.022 C 
BRANCH   7   8
ATOM      8  C   UNL     1       0.294   0.463  -0.104  1.00  0.00    -0.002 C 
ATOM      9  C   UNL     1      -0.322   0.911   1.222  1.00  0.00     0.004 C 
ENDBRANCH   7   8
ENDBRANCH   6   7
ENDBRANCH   1   6
BRANCH   5  10
ATOM     10  C   UNL     1       0.562   3.560  -3.588  1.00  0.00     0.157 A 
ATOM     11  N   UNL     1       0.719   4.705  -4.208  1.00  0.00    -0.228 NA
ATOM     12  N   UNL     1       1.247   3.229  -2.447  1.00  0.00    -0.305 N 
ATOM     13  C   UNL     1       1.567   5.646  -3.750  1.00  0.00     0.078 A 
ATOM     14  C   UNL     1       2.130   4.098  -1.902  1.00  0.00     0.259 A 
ATOM     15  H   UNL     1       1.088   2.314  -2.002  1.00  0.00     0.171 HD
ATOM     16  C   UNL     1       2.316   5.390  -2.578  1.00  0.00     0.065 A 
ATOM     17  C   UNL     1       1.729   6.868  -4.411  1.00  0.00     0.029 A 
ATOM     18  O   UNL     1       2.746   3.821  -0.890  1.00  0.00    -0.269 OA
ATOM     19  C   UNL     1       3.203   6.351  -2.095  1.00  0.00     0.016 A 
ATOM     20  C   UNL     1       2.603   7.796  -3.920  1.00  0.00     0.002 A 
ATOM     21  C   UNL     1       3.339   7.545  -2.769  1.00  0.00     0.001 A 
ENDBRANCH   5  10
BRANCH   3  22
ATOM     22  C   UNL     1      -3.000   1.373  -6.407  1.00  0.00     0.198 C 
ATOM     23  O   UNL     1      -3.622   0.328  -6.413  1.00  0.00    -0.288 OA
BRANCH  22  24
ATOM     24  C   UNL     1      -3.285   2.407  -7.420  1.00  0.00     0.064 A 
ATOM     25  C   UNL     1      -2.400   2.610  -8.488  1.00  0.00     0.126 A 
ATOM     26  C   UNL     1      -4.436   3.193  -7.318  1.00  0.00     0.016 A 
ATOM     27  C   UNL     1      -2.681   3.582  -9.437  1.00  0.00     0.047 A 
ATOM     28  C   UNL     1      -4.696   4.157  -8.267  1.00  0.00     0.001 A 
ATOM     29  C   UNL     1      -3.821   4.352  -9.324  1.00  0.00     0.004 A 
BRANCH  25  30
ATOM     30  O   UNL     1      -1.277   1.857  -8.596  1.00  0.00    -0.507 OA
ATOM     31  H   UNL     1      -1.600   0.921  -8.605  1.00  0.00     0.293 HD
ENDBRANCH  25  30
ENDBRANCH  22  24
ENDBRANCH   3  22
TORSDOF 7
