REMARK SMILES Cc1ccc2nc(CSc3nnc(-c4cccnc4)n3-c3ccc(Cl)c(Cl)c3)cn2c1
REMARK SMILES IDX 9 1 8 2 7 3 1 4 2 5 31 6 3 7 30 8 4 9 5 10 29 11 6 12 10 13
REMARK SMILES IDX 20 14 11 15 13 16 12 17 21 18 28 19 22 20 26 21 23 22 24 23
REMARK SMILES IDX 27 24 25 25 14 26 19 27 15 28 18 29 16 30 17 31
REMARK H PARENT
REMARK Flexibility Score: inf
ROOT
ATOM      1  S   UNL     1       3.115  -5.590  -0.167  1.00  0.00    -0.079 SA
ENDROOT
BRANCH   1   2
ATOM      2  C   UNL     1       1.885  -6.875  -0.504  1.00  0.00     0.136 C 
BRANCH   2   3
ATOM      3  C   UNL     1       2.573  -8.211  -0.619  1.00  0.00     0.070 A 
ATOM      4  C   UNL     1       5.357 -13.111  -2.422  1.00  0.00     0.046 C 
ATOM      5  C   UNL     1       4.673 -12.058  -1.589  1.00  0.00    -0.034 A 
ATOM      6  C   UNL     1       4.224 -10.927  -2.171  1.00  0.00     0.096 A 
ATOM      7  C   UNL     1       4.507 -12.259  -0.208  1.00  0.00     0.009 A 
ATOM      8  N   UNL     1       3.602  -9.964  -1.431  1.00  0.00    -0.307 N 
ATOM      9  C   UNL     1       3.889 -11.307   0.541  1.00  0.00     0.048 A 
ATOM     10  C   UNL     1       3.425 -10.131  -0.082  1.00  0.00     0.137 A 
ATOM     11  C   UNL     1       3.056  -8.753  -1.759  1.00  0.00     0.117 A 
ATOM     12  N   UNL     1       2.801  -9.059   0.386  1.00  0.00    -0.233 NA
ENDBRANCH   2   3
ENDBRANCH   1   2
BRANCH   1  13
ATOM     13  C   UNL     1       2.066  -4.177  -0.083  1.00  0.00     0.196 A 
ATOM     14  N   UNL     1       2.458  -2.888   0.149  1.00  0.00    -0.270 N 
ATOM     15  N   UNL     1       0.760  -4.165  -0.237  1.00  0.00    -0.122 NA
ATOM     16  C   UNL     1       1.302  -2.139   0.128  1.00  0.00     0.170 A 
ATOM     17  N   UNL     1       0.312  -2.967  -0.113  1.00  0.00    -0.129 NA
BRANCH  14  18
ATOM     18  C   UNL     1       3.764  -2.425   0.367  1.00  0.00     0.051 A 
ATOM     19  C   UNL     1       4.382  -1.618  -0.578  1.00  0.00     0.048 A 
ATOM     20  C   UNL     1       4.442  -2.778   1.526  1.00  0.00     0.028 A 
ATOM     21  C   UNL     1       5.667  -1.158  -0.358  1.00  0.00     0.061 A 
ATOM     22  C   UNL     1       5.728  -2.321   1.739  1.00  0.00     0.024 A 
ATOM     23  C   UNL     1       6.341  -1.512   0.799  1.00  0.00     0.059 A 
ATOM     24  Cl  UNL     1       6.438  -0.142  -1.535  1.00  0.00    -0.083 Cl
ATOM     25  Cl  UNL     1       7.957  -0.939   1.070  1.00  0.00    -0.083 Cl
ENDBRANCH  14  18
BRANCH  16  26
ATOM     26  C   UNL     1       1.196  -0.679   0.331  1.00  0.00     0.038 A 
ATOM     27  C   UNL     1       0.053   0.013  -0.072  1.00  0.00     0.123 A 
ATOM     28  C   UNL     1       2.241   0.034   0.932  1.00  0.00     0.015 A 
ATOM     29  N   UNL     1      -0.041   1.314   0.110  1.00  0.00    -0.264 NA
ATOM     30  C   UNL     1       2.093   1.399   1.100  1.00  0.00     0.021 A 
ATOM     31  C   UNL     1       0.928   2.011   0.673  1.00  0.00     0.111 A 
ENDBRANCH  16  26
ENDBRANCH   1  13
TORSDOF 5
