REMARK SMILES Cc1nc(C(C)(C)C)nc2sc(C(=O)Nn3cnc4sc5c(c4c3=O)CCCC5)c(C)c12
REMARK SMILES IDX 31 1 30 2 32 3 2 4 3 5 4 6 9 7 10 8 11 9 12 10 1 11 13 12
REMARK SMILES IDX 14 13 15 14 16 16 24 17 17 18 23 19 25 20 18 21 19 22 22 23
REMARK SMILES IDX 20 24 26 25 21 26 27 27 29 28 28 29 5 30 6 31 7 32 8 33
REMARK H PARENT 15 15
REMARK Flexibility Score: inf
ROOT
ATOM      1  C   UNL     1       2.270  -7.811  -4.344  1.00  0.00     0.047 C 
ATOM      2  C   UNL     1       3.226  -8.018  -3.198  1.00  0.00    -0.016 A 
ATOM      3  C   UNL     1       4.241  -8.983  -3.292  1.00  0.00     0.036 A 
ATOM      4  C   UNL     1       4.545  -9.864  -4.360  1.00  0.00     0.050 A 
ATOM      5  N   UNL     1       5.553 -10.700  -4.238  1.00  0.00    -0.237 NA
ATOM      6  C   UNL     1       6.302 -10.754  -3.150  1.00  0.00     0.135 A 
ATOM      7  N   UNL     1       6.073  -9.963  -2.120  1.00  0.00    -0.221 NA
ATOM      8  C   UNL     1       5.085  -9.096  -2.157  1.00  0.00     0.128 A 
ATOM      9  S   UNL     1       4.439  -7.873  -1.046  1.00  0.00    -0.110 S 
ATOM     10  C   UNL     1       3.107  -7.269  -2.069  1.00  0.00     0.099 A 
ATOM     11  C   UNL     1       3.723  -9.843  -5.622  1.00  0.00     0.067 C 
ENDROOT
BRANCH  10  12
ATOM     12  C   UNL     1       2.127  -6.216  -1.768  1.00  0.00     0.280 C 
ATOM     13  O   UNL     1       1.280  -5.921  -2.589  1.00  0.00    -0.266 OA
ATOM     14  N   UNL     1       2.167  -5.577  -0.582  1.00  0.00    -0.254 N 
ATOM     15  H   UNL     1       2.884  -5.827   0.114  1.00  0.00     0.192 HD
BRANCH  14  16
ATOM     16  N   UNL     1       1.232  -4.574  -0.295  1.00  0.00    -0.205 N 
ATOM     17  C   UNL     1       1.640  -3.283  -0.334  1.00  0.00     0.281 A 
ATOM     18  C   UNL     1      -0.036  -4.940   0.009  1.00  0.00     0.227 A 
ATOM     19  C   UNL     1       0.635  -2.303  -0.030  1.00  0.00     0.082 A 
ATOM     20  O   UNL     1       2.786  -2.972  -0.610  1.00  0.00    -0.267 OA
ATOM     21  N   UNL     1      -0.983  -4.073   0.292  1.00  0.00    -0.225 NA
ATOM     22  C   UNL     1      -0.658  -2.784   0.274  1.00  0.00     0.131 A 
ATOM     23  C   UNL     1       0.805  -0.862  -0.002  1.00  0.00    -0.019 A 
ATOM     24  S   UNL     1      -1.582  -1.313   0.581  1.00  0.00    -0.120 S 
ATOM     25  C   UNL     1       2.137  -0.179  -0.304  1.00  0.00     0.037 C 
ATOM     26  C   UNL     1      -0.288  -0.128   0.312  1.00  0.00     0.011 A 
ATOM     27  C   UNL     1       1.876   1.288  -0.642  1.00  0.00     0.005 C 
ATOM     28  C   UNL     1      -0.381   1.364   0.410  1.00  0.00     0.047 C 
ATOM     29  C   UNL     1       1.042   1.937   0.466  1.00  0.00     0.006 C 
ENDBRANCH  14  16
ENDBRANCH  10  12
BRANCH   6  30
ATOM     30  C   UNL     1       7.440 -11.739  -3.086  1.00  0.00     0.022 C 
ATOM     31  C   UNL     1       8.150 -11.610  -1.737  1.00  0.00     0.019 C 
ATOM     32  C   UNL     1       6.894 -13.160  -3.241  1.00  0.00     0.019 C 
ATOM     33  C   UNL     1       8.432 -11.448  -4.214  1.00  0.00     0.019 C 
ENDBRANCH   6  30
TORSDOF 3
