REMARK SMILES O=C(NCCC1=CCCCC1)c1ccc2c(=O)[nH]c3c(C(=O)NC4CCCC4)sc(=S)n3c2c1
REMARK SMILES IDX 2 1 1 2 3 3 12 5 13 6 14 7 34 8 15 9 33 10 16 11 32 12 18 13
REMARK SMILES IDX 17 14 30 15 19 16 29 18 31 19 20 20 21 21 22 22 23 23 24 25
REMARK SMILES IDX 28 26 25 27 27 28 26 29 4 30 5 31 6 32 11 33 7 34 10 35 8 36
REMARK SMILES IDX 9 37
REMARK H PARENT 3 4 18 17 23 24
REMARK Flexibility Score: inf
ROOT
ATOM      1  C   UNL     1      -1.187   1.624   0.017  1.00  0.00     0.251 C 
ATOM      2  O   UNL     1      -1.204   2.839   0.023  1.00  0.00    -0.269 OA
ATOM      3  N   UNL     1      -0.011   0.966   0.007  1.00  0.00    -0.352 N 
ATOM      4  H   UNL     1       0.003  -0.064   0.006  1.00  0.00     0.163 HD
ENDROOT
BRANCH   1   5
ATOM      5  C   UNL     1      -2.459   0.866   0.018  1.00  0.00     0.041 A 
ATOM      6  C   UNL     1      -2.437  -0.531   0.005  1.00  0.00     0.015 A 
ATOM      7  C   UNL     1      -3.616  -1.244   0.011  1.00  0.00     0.017 A 
ATOM      8  C   UNL     1      -3.674   1.550   0.028  1.00  0.00     0.041 A 
ATOM      9  C   UNL     1      -4.832  -0.564   0.021  1.00  0.00     0.064 A 
ATOM     10  C   UNL     1      -4.861   0.833   0.030  1.00  0.00     0.063 A 
ATOM     11  C   UNL     1      -6.117  -1.290   0.024  1.00  0.00     0.258 A 
ATOM     12  N   UNL     1      -6.091   1.526   0.039  1.00  0.00    -0.276 N 
ATOM     13  N   UNL     1      -7.252  -0.573   0.033  1.00  0.00    -0.306 N 
ATOM     14  O   UNL     1      -6.147  -2.505   0.017  1.00  0.00    -0.269 OA
ATOM     15  C   UNL     1      -6.149   2.893   0.046  1.00  0.00     0.168 A 
ATOM     16  C   UNL     1      -7.256   0.821   0.041  1.00  0.00     0.142 A 
ATOM     17  H   UNL     1      -8.153  -1.072   0.035  1.00  0.00     0.171 HD
ATOM     18  S   UNL     1      -7.844   3.232   0.054  1.00  0.00    -0.097 S 
ATOM     19  S   UNL     1      -4.849   4.007   0.045  1.00  0.00    -0.048 S 
ATOM     20  C   UNL     1      -8.437   1.555   0.049  1.00  0.00     0.136 A 
BRANCH  20  21
ATOM     21  C   UNL     1      -9.770   1.087   0.053  1.00  0.00     0.265 C 
ATOM     22  O   UNL     1      -9.995  -0.111   0.048  1.00  0.00    -0.268 OA
ATOM     23  N   UNL     1     -10.792   1.965   0.061  1.00  0.00    -0.348 N 
ATOM     24  H   UNL     1     -10.602   2.977   0.065  1.00  0.00     0.164 HD
BRANCH  23  25
ATOM     25  C   UNL     1     -12.175   1.480   0.065  1.00  0.00     0.082 C 
ATOM     26  C   UNL     1     -13.103   2.539   0.684  1.00  0.00     0.025 C 
ATOM     27  C   UNL     1     -12.661   1.260  -1.383  1.00  0.00     0.025 C 
ATOM     28  C   UNL     1     -14.122   2.925  -0.408  1.00  0.00     0.002 C 
ATOM     29  C   UNL     1     -14.146   1.700  -1.355  1.00  0.00     0.002 C 
ENDBRANCH  23  25
ENDBRANCH  20  21
ENDBRANCH   1   5
BRANCH   3  30
ATOM     30  C   UNL     1       1.248   1.716  -0.001  1.00  0.00     0.120 C 
BRANCH  30  31
ATOM     31  C   UNL     1       2.424   0.737  -0.017  1.00  0.00     0.052 C 
BRANCH  31  32
ATOM     32  C   UNL     1       3.719   1.508  -0.025  1.00  0.00    -0.072 C 
ATOM     33  C   UNL     1       4.254   1.970  -1.349  1.00  0.00     0.031 C 
ATOM     34  C   UNL     1       4.302   1.727   1.109  1.00  0.00    -0.028 C 
ATOM     35  C   UNL     1       5.300   3.069  -1.138  1.00  0.00     0.005 C 
ATOM     36  C   UNL     1       5.587   2.486   1.261  1.00  0.00     0.027 C 
ATOM     37  C   UNL     1       6.305   2.582  -0.087  1.00  0.00     0.004 C 
ENDBRANCH  31  32
ENDBRANCH  30  31
ENDBRANCH   3  30
TORSDOF 6
