REMARK SMILES C[C@@H](NC(=O)C(C)(C)C)C(=O)NNC(=O)CCN1CC[NH+](C(c2ccccc2)c2ccccc2)CC1
REMARK SMILES IDX 13 1 14 2 15 3 12 5 10 6 11 7 2 9 1 10 3 11 4 12 5 14 6 15
REMARK SMILES IDX 7 16 8 17 9 18 16 19 17 20 18 21 36 22 19 23 35 24 20 25
REMARK SMILES IDX 21 26 22 28 23 29 28 30 24 31 27 32 25 33 26 34 29 35 34 36
REMARK SMILES IDX 30 37 33 38 31 39 32 40
REMARK H PARENT 13 4 12 8 3 13 21 27
REMARK Flexibility Score: inf
ROOT
ATOM      1  N   UNL     1       6.941  -0.959   2.186  1.00  0.00    -0.268 N 
ATOM      2  C   UNL     1       5.608  -1.076   2.347  1.00  0.00     0.239 C 
ATOM      3  O   UNL     1       5.162  -1.659   3.313  1.00  0.00    -0.273 OA
ATOM      4  H   UNL     1       7.319  -0.464   1.366  1.00  0.00     0.191 HD
ENDROOT
BRANCH   1   5
ATOM      5  N   UNL     1       7.812  -1.510   3.135  1.00  0.00    -0.266 N 
ATOM      6  C   UNL     1       9.145  -1.393   2.974  1.00  0.00     0.260 C 
ATOM      7  O   UNL     1       9.591  -0.811   2.009  1.00  0.00    -0.271 OA
ATOM      8  H   UNL     1       7.434  -2.005   3.955  1.00  0.00     0.191 HD
BRANCH   6   9
ATOM      9  C   UNL     1      10.082  -1.987   3.995  1.00  0.00     0.170 C 
ATOM     10  C   UNL     1       9.851  -3.497   4.082  1.00  0.00     0.041 C 
BRANCH   9  11
ATOM     11  N   UNL     1      11.467  -1.727   3.596  1.00  0.00    -0.344 N 
ATOM     12  C   UNL     1      12.441  -1.691   4.526  1.00  0.00     0.226 C 
ATOM     13  H   UNL     1      11.697  -1.571   2.604  1.00  0.00     0.164 HD
ATOM     14  O   UNL     1      12.171  -1.875   5.694  1.00  0.00    -0.275 OA
BRANCH  12  15
ATOM     15  C   UNL     1      13.866  -1.424   4.115  1.00  0.00     0.041 C 
ATOM     16  C   UNL     1      14.765  -1.437   5.354  1.00  0.00     0.021 C 
ATOM     17  C   UNL     1      14.328  -2.507   3.139  1.00  0.00     0.021 C 
ATOM     18  C   UNL     1      13.953  -0.055   3.437  1.00  0.00     0.021 C 
ENDBRANCH  12  15
ENDBRANCH   9  11
ENDBRANCH   6   9
ENDBRANCH   1   5
BRANCH   2  19
ATOM     19  C   UNL     1       4.671  -0.483   1.326  1.00  0.00     0.117 C 
BRANCH  19  20
ATOM     20  C   UNL     1       3.224  -0.754   1.744  1.00  0.00     0.095 C 
BRANCH  20  21
ATOM     21  N   UNL     1       2.311  -0.176   0.749  1.00  0.00    -0.292 NA
ATOM     22  C   UNL     1       2.400   1.291   0.742  1.00  0.00     0.146 C 
ATOM     23  C   UNL     1       0.929  -0.616   0.984  1.00  0.00     0.146 C 
ATOM     24  C   UNL     1       1.496   1.849  -0.359  1.00  0.00     0.278 C 
ATOM     25  C   UNL     1       0.024  -0.058  -0.117  1.00  0.00     0.278 C 
ATOM     26  N   UNL     1       0.113   1.409  -0.124  1.00  0.00    -0.323 N 
ATOM     27  H   UNL     1      -0.175   1.750   0.805  1.00  0.00     0.349 HD
BRANCH  26  28
ATOM     28  C   UNL     1      -0.800   1.987  -1.118  1.00  0.00     0.246 C 
BRANCH  28  29
ATOM     29  C   UNL     1      -2.209   1.536  -0.829  1.00  0.00     0.014 A 
ATOM     30  C   UNL     1      -3.025   1.115  -1.862  1.00  0.00     0.010 A 
ATOM     31  C   UNL     1      -2.682   1.539   0.469  1.00  0.00     0.010 A 
ATOM     32  C   UNL     1      -4.317   0.701  -1.597  1.00  0.00     0.001 A 
ATOM     33  C   UNL     1      -3.976   1.129   0.734  1.00  0.00     0.001 A 
ATOM     34  C   UNL     1      -4.793   0.709  -0.299  1.00  0.00     0.000 A 
ENDBRANCH  28  29
BRANCH  28  35
ATOM     35  C   UNL     1      -0.730   3.491  -1.050  1.00  0.00     0.014 A 
ATOM     36  C   UNL     1      -0.665   4.234  -2.215  1.00  0.00     0.010 A 
ATOM     37  C   UNL     1      -0.737   4.129   0.176  1.00  0.00     0.010 A 
ATOM     38  C   UNL     1      -0.601   5.613  -2.152  1.00  0.00     0.001 A 
ATOM     39  C   UNL     1      -0.668   5.508   0.239  1.00  0.00     0.001 A 
ATOM     40  C   UNL     1      -0.602   6.250  -0.925  1.00  0.00     0.000 A 
ENDBRANCH  28  35
ENDBRANCH  26  28
ENDBRANCH  20  21
ENDBRANCH  19  20
ENDBRANCH   2  19
TORSDOF 10
