REMARK SMILES C[C@H]1CCc2sc(C(=O)NNC(=O)CCn3cnc4sc5c(c4c3=O)CCCC5)cc2C1
REMARK SMILES IDX 11 1 12 2 13 3 10 5 8 6 9 7 7 9 1 10 2 11 32 12 3 13 31 14
REMARK SMILES IDX 4 15 5 16 30 17 6 18 14 19 15 20 16 21 24 22 17 23 23 24
REMARK SMILES IDX 25 25 18 26 19 27 22 28 20 29 26 30 21 31 27 32 29 33 28 34
REMARK H PARENT 11 4 10 8
REMARK Flexibility Score: inf
ROOT
ATOM      1  N   UNL     1      -3.905   7.785  -2.553  1.00  0.00    -0.267 N 
ATOM      2  C   UNL     1      -3.739   7.125  -1.389  1.00  0.00     0.240 C 
ATOM      3  O   UNL     1      -3.878   7.710  -0.336  1.00  0.00    -0.273 OA
ATOM      4  H   UNL     1      -3.787   7.288  -3.448  1.00  0.00     0.191 HD
ENDROOT
BRANCH   1   5
ATOM      5  N   UNL     1      -4.237   9.145  -2.546  1.00  0.00    -0.263 N 
ATOM      6  C   UNL     1      -4.403   9.805  -3.709  1.00  0.00     0.279 C 
ATOM      7  O   UNL     1      -4.263   9.218  -4.767  1.00  0.00    -0.266 OA
ATOM      8  H   UNL     1      -4.355   9.642  -1.651  1.00  0.00     0.191 HD
BRANCH   6   9
ATOM      9  C   UNL     1      -4.750  11.229  -3.702  1.00  0.00     0.094 A 
ATOM     10  C   UNL     1      -5.825  16.869  -6.045  1.00  0.00     0.008 C 
ATOM     11  C   UNL     1      -5.402  15.831  -5.004  1.00  0.00    -0.010 C 
ATOM     12  C   UNL     1      -5.538  14.429  -5.600  1.00  0.00     0.040 C 
ATOM     13  C   UNL     1      -6.294  15.960  -3.766  1.00  0.00     0.009 C 
ATOM     14  C   UNL     1      -5.284  13.401  -4.501  1.00  0.00    -0.033 A 
ATOM     15  C   UNL     1      -5.696  15.111  -2.635  1.00  0.00     0.047 C 
ATOM     16  C   UNL     1      -5.367  13.757  -3.185  1.00  0.00     0.009 A 
ATOM     17  C   UNL     1      -4.963  12.080  -4.770  1.00  0.00     0.029 A 
ATOM     18  S   UNL     1      -5.018  12.315  -2.311  1.00  0.00    -0.135 S 
ENDBRANCH   6   9
ENDBRANCH   1   5
BRANCH   2  19
ATOM     19  C   UNL     1      -3.381   5.661  -1.397  1.00  0.00     0.124 C 
BRANCH  19  20
ATOM     20  C   UNL     1      -3.253   5.160   0.043  1.00  0.00     0.137 C 
BRANCH  20  21
ATOM     21  N   UNL     1      -2.906   3.736   0.035  1.00  0.00    -0.298 N 
ATOM     22  C   UNL     1      -1.596   3.392   0.027  1.00  0.00     0.262 A 
ATOM     23  C   UNL     1      -3.909   2.827   0.036  1.00  0.00     0.204 A 
ATOM     24  C   UNL     1      -1.323   1.983   0.019  1.00  0.00     0.080 A 
ATOM     25  O   UNL     1      -0.706   4.225   0.027  1.00  0.00    -0.269 OA
ATOM     26  N   UNL     1      -3.700   1.528   0.043  1.00  0.00    -0.227 NA
ATOM     27  C   UNL     1      -2.436   1.114   0.030  1.00  0.00     0.131 A 
ATOM     28  C   UNL     1      -0.016   1.350   0.009  1.00  0.00    -0.019 A 
ATOM     29  S   UNL     1      -1.705  -0.492   0.016  1.00  0.00    -0.120 S 
ATOM     30  C   UNL     1       1.288   2.142   0.001  1.00  0.00     0.037 C 
ATOM     31  C   UNL     1       0.002  -0.004   0.002  1.00  0.00     0.011 A 
ATOM     32  C   UNL     1       2.428   1.226   0.449  1.00  0.00     0.005 C 
ATOM     33  C   UNL     1       1.206  -0.895  -0.014  1.00  0.00     0.047 C 
ATOM     34  C   UNL     1       2.430  -0.051  -0.396  1.00  0.00     0.006 C 
ENDBRANCH  20  21
ENDBRANCH  19  20
ENDBRANCH   2  19
TORSDOF 5
