REMARK SMILES N#CC1=C(N)Oc2cc(O)c(/C=N/c3cc(C(F)(F)F)ccc3Cl)cc2[C@@H]1c1cccc(F)c1
REMARK SMILES IDX 12 1 13 2 11 3 27 4 3 5 26 6 4 7 7 8 25 9 6 10 8 11 9 12
REMARK SMILES IDX 28 13 30 14 31 15 29 16 32 17 34 18 33 19 2 20 1 21 5 22
REMARK SMILES IDX 10 25 14 27 23 28 15 29 22 30 24 31 16 32 21 33 17 34 18 35
REMARK SMILES IDX 19 36 20 37
REMARK H PARENT 5 23 5 24 10 26
REMARK Flexibility Score: inf
ROOT
ATOM      1  C   UNL     1      -0.013   1.076   0.008  1.00  0.00     0.123 C 
ATOM      2  N   UNL     1       1.108   1.743   0.001  1.00  0.00    -0.255 NA
ENDROOT
BRANCH   1   3
ATOM      3  C   UNL     1      -1.294   1.793   0.018  1.00  0.00     0.035 A 
ATOM      4  C   UNL     1      -4.986   0.971   0.027  1.00  0.00     0.100 C 
ATOM      5  C   UNL     1      -6.131   1.849   0.445  1.00  0.00     0.101 C 
ATOM      6  C   UNL     1      -3.700   1.755   0.028  1.00  0.00     0.009 A 
ATOM      7  C   UNL     1      -6.025   3.199   0.430  1.00  0.00     0.205 C 
ATOM      8  C   UNL     1      -3.722   3.145   0.036  1.00  0.00     0.137 A 
ATOM      9  C   UNL     1      -2.498   1.081   0.014  1.00  0.00     0.022 A 
ATOM     10  O   UNL     1      -4.898   3.820   0.045  1.00  0.00    -0.440 OA
ATOM     11  C   UNL     1      -2.530   3.861   0.035  1.00  0.00     0.094 A 
ATOM     12  C   UNL     1      -1.318   3.197   0.026  1.00  0.00     0.128 A 
BRANCH   4  13
ATOM     13  C   UNL     1      -5.245   0.437  -1.358  1.00  0.00    -0.032 A 
ATOM     14  C   UNL     1      -5.580  -1.417  -2.837  1.00  0.00     0.003 A 
ATOM     15  C   UNL     1      -5.721  -0.545  -3.900  1.00  0.00     0.039 A 
ATOM     16  C   UNL     1      -5.343  -0.926  -1.567  1.00  0.00     0.005 A 
ATOM     17  C   UNL     1      -5.623   0.821  -3.692  1.00  0.00     0.123 A 
ATOM     18  C   UNL     1      -5.390   1.311  -2.419  1.00  0.00     0.044 A 
ATOM     19  F   UNL     1      -5.760   1.674  -4.731  1.00  0.00    -0.207 F 
ENDBRANCH   4  13
BRANCH   5  20
ATOM     20  C   UNL     1      -7.361   1.247   0.865  1.00  0.00     0.101 C 
ATOM     21  N   UNL     1      -8.336   0.769   1.199  1.00  0.00    -0.193 NA
ENDBRANCH   5  20
BRANCH   7  22
ATOM     22  N   UNL     1      -7.101   3.955   0.822  1.00  0.00    -0.369 N 
ATOM     23  H   UNL     1      -7.049   4.984   0.821  1.00  0.00     0.159 HD
ATOM     24  H   UNL     1      -7.969   3.487   1.119  1.00  0.00     0.159 HD
ENDBRANCH   7  22
BRANCH  12  25
ATOM     25  O   UNL     1      -0.157   3.899   0.024  1.00  0.00    -0.507 OA
ATOM     26  H   UNL     1       0.331   3.579  -0.776  1.00  0.00     0.293 HD
ENDBRANCH  12  25
ENDBRANCH   1   3
BRANCH   2  27
ATOM     27  C   UNL     1       2.303   1.075  -0.014  1.00  0.00     0.082 A 
ATOM     28  C   UNL     1       3.376   1.540   0.750  1.00  0.00     0.066 A 
ATOM     29  C   UNL     1       2.456  -0.070  -0.798  1.00  0.00     0.043 A 
ATOM     30  C   UNL     1       4.576   0.857   0.735  1.00  0.00     0.023 A 
ATOM     31  Cl  UNL     1       3.200   2.967   1.723  1.00  0.00    -0.082 Cl
ATOM     32  C   UNL     1       3.662  -0.739  -0.808  1.00  0.00     0.058 A 
ATOM     33  C   UNL     1       4.720  -0.277  -0.045  1.00  0.00     0.015 A 
BRANCH  32  34
ATOM     34  C   UNL     1       3.829  -1.975  -1.654  1.00  0.00     0.416 C 
ATOM     35  F   UNL     1       4.285  -1.612  -2.926  1.00  0.00    -0.166 F 
ATOM     36  F   UNL     1       4.758  -2.830  -1.052  1.00  0.00    -0.166 F 
ATOM     37  F   UNL     1       2.599  -2.631  -1.769  1.00  0.00    -0.166 F 
ENDBRANCH  32  34
ENDBRANCH   2  27
TORSDOF 7
