REMARK SMILES Nc1noc2ccc(-n3nc(C(F)(F)F)c4c3C(=O)N(c3ccc(-c5ccccc5CN5CC[NH2+]CC5)cc3)CC4)cc12
REMARK SMILES IDX 24 1 23 2 22 3 21 4 39 5 38 6 25 7 28 8 29 9 27 10 30 11
REMARK SMILES IDX 26 12 31 13 32 14 37 15 33 16 36 17 34 18 35 19 20 22 18 23
REMARK SMILES IDX 40 24 17 25 19 26 41 27 16 28 9 29 11 30 10 31 8 32 42 33
REMARK SMILES IDX 7 34 43 35 6 36 5 37 2 38 4 39 3 40 1 41 12 44 13 45 14 46
REMARK SMILES IDX 15 47
REMARK H PARENT 35 20 35 21 1 42 1 43
REMARK Flexibility Score: inf
ROOT
ATOM      1  C   UNL     1       0.293  -2.316  -0.964  1.00  0.00    -0.018 A 
ATOM      2  C   UNL     1       1.590  -1.851  -1.176  1.00  0.00     0.011 A 
ATOM      3  C   UNL     1       1.837  -0.496  -1.221  1.00  0.00     0.027 A 
ATOM      4  C   UNL     1       0.793   0.408  -1.057  1.00  0.00     0.044 A 
ATOM      5  C   UNL     1      -0.500  -0.053  -0.841  1.00  0.00     0.027 A 
ATOM      6  C   UNL     1      -0.752  -1.408  -0.799  1.00  0.00     0.011 A 
ENDROOT
BRANCH   1   7
ATOM      7  C   UNL     1       0.025  -3.774  -0.915  1.00  0.00    -0.014 A 
ATOM      8  C   UNL     1      -0.475  -6.495  -0.823  1.00  0.00     0.000 A 
ATOM      9  C   UNL     1      -1.140  -5.703  -1.741  1.00  0.00     0.006 A 
ATOM     10  C   UNL     1       0.440  -5.933   0.049  1.00  0.00     0.001 A 
ATOM     11  C   UNL     1      -0.899  -4.345  -1.787  1.00  0.00    -0.026 A 
ATOM     12  C   UNL     1       0.693  -4.577   0.008  1.00  0.00     0.009 A 
BRANCH  11  13
ATOM     13  C   UNL     1      -1.630  -3.482  -2.784  1.00  0.00     0.121 C 
BRANCH  13  14
ATOM     14  N   UNL     1      -0.711  -3.095  -3.863  1.00  0.00    -0.288 NA
ATOM     15  C   UNL     1      -1.438  -2.456  -4.969  1.00  0.00     0.146 C 
ATOM     16  C   UNL     1       0.058  -4.252  -4.341  1.00  0.00     0.146 C 
ATOM     17  C   UNL     1      -0.439  -1.997  -6.034  1.00  0.00     0.276 C 
ATOM     18  C   UNL     1       1.056  -3.793  -5.406  1.00  0.00     0.276 C 
ATOM     19  N   UNL     1       0.330  -3.154  -6.512  1.00  0.00    -0.344 N 
ATOM     20  H   UNL     1       1.003  -2.843  -7.226  1.00  0.00     0.346 HD
ATOM     21  H   UNL     1      -0.314  -3.837  -6.936  1.00  0.00     0.346 HD
ENDBRANCH  13  14
ENDBRANCH  11  13
ENDBRANCH   1   7
BRANCH   4  22
ATOM     22  N   UNL     1       1.046   1.781  -1.104  1.00  0.00    -0.307 N 
ATOM     23  C   UNL     1       0.754   2.532  -0.016  1.00  0.00     0.277 C 
ATOM     24  C   UNL     1       1.618   2.345  -2.320  1.00  0.00     0.131 C 
ATOM     25  C   UNL     1       0.792   3.990  -0.190  1.00  0.00     0.136 A 
ATOM     26  O   UNL     1       0.475   2.024   1.054  1.00  0.00    -0.267 OA
ATOM     27  C   UNL     1       0.985   3.691  -2.696  1.00  0.00     0.062 C 
ATOM     28  C   UNL     1       0.906   4.546  -1.464  1.00  0.00     0.018 A 
ATOM     29  N   UNL     1       0.720   5.024   0.674  1.00  0.00    -0.227 N 
ATOM     30  C   UNL     1       0.914   5.912  -1.274  1.00  0.00     0.170 A 
ATOM     31  N   UNL     1       0.802   6.134   0.018  1.00  0.00    -0.162 NA
BRANCH  29  32
ATOM     32  C   UNL     1       0.578   4.911   2.064  1.00  0.00     0.066 A 
ATOM     33  C   UNL     1       1.308   3.963   2.757  1.00  0.00     0.044 A 
ATOM     34  C   UNL     1      -0.294   5.758   2.744  1.00  0.00     0.032 A 
ATOM     35  C   UNL     1       1.163   3.856   4.140  1.00  0.00     0.068 A 
ATOM     36  C   UNL     1      -0.448   5.655   4.108  1.00  0.00     0.053 A 
ATOM     37  C   UNL     1       0.279   4.707   4.820  1.00  0.00     0.169 A 
ATOM     38  C   UNL     1       1.768   2.984   5.159  1.00  0.00     0.174 A 
ATOM     39  O   UNL     1       0.341   4.384   6.129  1.00  0.00    -0.354 OA
ATOM     40  N   UNL     1       1.259   3.325   6.310  1.00  0.00    -0.061 NA
BRANCH  38  41
ATOM     41  N   UNL     1       2.704   1.984   4.936  1.00  0.00    -0.380 N 
ATOM     42  H   UNL     1       2.988   1.859   3.954  1.00  0.00     0.158 HD
ATOM     43  H   UNL     1       3.098   1.399   5.686  1.00  0.00     0.158 HD
ENDBRANCH  38  41
ENDBRANCH  29  32
BRANCH  30  44
ATOM     44  C   UNL     1       1.030   6.960  -2.351  1.00  0.00     0.435 C 
ATOM     45  F   UNL     1       1.116   8.226  -1.762  1.00  0.00    -0.164 F 
ATOM     46  F   UNL     1       2.179   6.721  -3.113  1.00  0.00    -0.164 F 
ATOM     47  F   UNL     1      -0.097   6.906  -3.178  1.00  0.00    -0.164 F 
ENDBRANCH  30  44
ENDBRANCH   4  22
TORSDOF 7
