REMARK SMILES Oc1c(Br)cc(Cc2ccccc2Cl)cc1/C=N/c1ccc(N2CC[NH2+]CC2)cc1
REMARK SMILES IDX 6 1 15 2 16 3 2 4 3 5 5 6 4 7 7 8 8 9 10 10 9 11 11 12 12 13
REMARK SMILES IDX 13 14 14 15 17 16 18 17 19 18 30 19 20 20 29 21 21 22 22 23
REMARK SMILES IDX 23 24 28 25 24 26 27 27 25 28 26 29 1 32
REMARK H PARENT 26 30 26 31 1 33
REMARK Flexibility Score: inf
ROOT
ATOM      1  C   UNL     1       0.002  -0.004   0.002  1.00  0.00    -0.042 A 
ATOM      2  C   UNL     1      -0.017   1.374   0.010  1.00  0.00     0.017 A 
ATOM      3  C   UNL     1       1.186   2.088   0.002  1.00  0.00     0.036 A 
ATOM      4  C   UNL     1       2.405   1.392  -0.014  1.00  0.00     0.138 A 
ATOM      5  C   UNL     1       2.404   0.006  -0.021  1.00  0.00     0.060 A 
ATOM      6  C   UNL     1       1.207  -0.687  -0.013  1.00  0.00     0.023 A 
ATOM      7  Br  UNL     1       4.041  -0.939  -0.041  1.00  0.00    -0.047 Br
ENDROOT
BRANCH   1   8
ATOM      8  C   UNL     1      -1.295  -0.772   0.010  1.00  0.00     0.072 C 
BRANCH   8   9
ATOM      9  C   UNL     1      -1.741  -1.020  -1.408  1.00  0.00    -0.025 A 
ATOM     10  C   UNL     1      -3.046  -0.386  -3.312  1.00  0.00     0.000 A 
ATOM     11  C   UNL     1      -2.641  -0.161  -2.010  1.00  0.00     0.005 A 
ATOM     12  C   UNL     1      -2.560  -1.476  -4.010  1.00  0.00     0.002 A 
ATOM     13  C   UNL     1      -1.663  -2.338  -3.407  1.00  0.00     0.021 A 
ATOM     14  C   UNL     1      -1.253  -2.111  -2.105  1.00  0.00     0.044 A 
ATOM     15  Cl  UNL     1      -0.127  -3.193  -1.348  1.00  0.00    -0.084 Cl
ENDBRANCH   8   9
ENDBRANCH   1   8
BRANCH   3  16
ATOM     16  C   UNL     1       1.174   3.558   0.009  1.00  0.00     0.123 C 
ATOM     17  N   UNL     1       2.297   4.219   0.002  1.00  0.00    -0.256 NA
BRANCH  17  18
ATOM     18  C   UNL     1       2.286   5.588   0.009  1.00  0.00     0.063 A 
ATOM     19  C   UNL     1       3.143   6.291   0.860  1.00  0.00     0.030 A 
ATOM     20  C   UNL     1       1.421   6.285  -0.838  1.00  0.00     0.030 A 
ATOM     21  C   UNL     1       3.128   7.668   0.864  1.00  0.00     0.028 A 
ATOM     22  C   UNL     1       1.408   7.663  -0.824  1.00  0.00     0.028 A 
ATOM     23  C   UNL     1       2.263   8.359   0.023  1.00  0.00     0.037 A 
BRANCH  23  24
ATOM     24  N   UNL     1       2.252   9.755   0.030  1.00  0.00    -0.360 N 
ATOM     25  C   UNL     1       1.268  10.279  -0.928  1.00  0.00     0.178 C 
ATOM     26  C   UNL     1       3.591  10.294  -0.246  1.00  0.00     0.178 C 
ATOM     27  C   UNL     1       1.230  11.806  -0.834  1.00  0.00     0.282 C 
ATOM     28  C   UNL     1       3.552  11.821  -0.151  1.00  0.00     0.282 C 
ATOM     29  N   UNL     1       2.569  12.345  -1.110  1.00  0.00    -0.343 N 
ATOM     30  H   UNL     1       2.542  13.372  -1.042  1.00  0.00     0.346 HD
ATOM     31  H   UNL     1       2.850  12.081  -2.065  1.00  0.00     0.346 HD
ENDBRANCH  23  24
ENDBRANCH  17  18
ENDBRANCH   3  16
BRANCH   4  32
ATOM     32  O   UNL     1       3.579   2.073  -0.022  1.00  0.00    -0.506 OA
ATOM     33  H   UNL     1       3.539   2.656   0.777  1.00  0.00     0.293 HD
ENDBRANCH   4  32
TORSDOF 6
