REMARK SMILES Cc1ccccc1Nc1nc(N)nc(C[NH2+]C[C@@H](c2ccccc2)c2c(-c3ccccc3)[nH]c3ccccc23)n1
REMARK SMILES IDX 16 1 15 4 14 5 9 6 10 7 40 8 11 9 13 10 8 11 7 13 1 14 2 15
REMARK SMILES IDX 3 16 6 17 4 18 5 19 12 20 17 23 18 24 19 25 24 26 20 27
REMARK SMILES IDX 23 28 21 29 22 30 25 31 26 32 39 33 33 34 34 35 38 36 35 38
REMARK SMILES IDX 37 39 36 40 27 41 32 42 28 43 31 44 29 45 30 46
REMARK H PARENT 16 2 16 3 8 12 12 21 12 22 33 37
REMARK Flexibility Score: inf
ROOT
ATOM      1  N   UNL     1      -1.462   2.009  -1.000  1.00  0.00    -0.339 N 
ATOM      2  H   UNL     1      -1.725   2.994  -0.854  1.00  0.00     0.346 HD
ATOM      3  H   UNL     1      -2.291   1.414  -0.862  1.00  0.00     0.346 HD
ENDROOT
BRANCH   1   4
ATOM      4  C   UNL     1      -0.958   1.836  -2.376  1.00  0.00     0.339 C 
BRANCH   4   5
ATOM      5  C   UNL     1      -2.039   2.228  -3.350  1.00  0.00     0.190 A 
ATOM      6  C   UNL     1      -3.854   1.665  -4.643  1.00  0.00     0.232 A 
ATOM      7  N   UNL     1      -3.944   2.921  -5.067  1.00  0.00    -0.177 NA
ATOM      8  N   UNL     1      -2.895   1.321  -3.786  1.00  0.00    -0.191 NA
ATOM      9  C   UNL     1      -3.078   3.829  -4.631  1.00  0.00     0.225 A 
ATOM     10  N   UNL     1      -2.125   3.479  -3.770  1.00  0.00    -0.192 NA
BRANCH   6  11
ATOM     11  N   UNL     1      -4.752   0.717  -5.093  1.00  0.00    -0.324 N 
ATOM     12  H   UNL     1      -4.629  -0.272  -4.834  1.00  0.00     0.170 HD
BRANCH  11  13
ATOM     13  C   UNL     1      -5.827   1.100  -5.902  1.00  0.00     0.044 A 
ATOM     14  C   UNL     1      -6.016  -1.277  -6.681  1.00  0.00     0.046 C 
ATOM     15  C   UNL     1      -6.473   0.159  -6.693  1.00  0.00    -0.027 A 
ATOM     16  C   UNL     1      -7.534   0.541  -7.490  1.00  0.00     0.005 A 
ATOM     17  C   UNL     1      -6.255   2.422  -5.910  1.00  0.00     0.026 A 
ATOM     18  C   UNL     1      -7.954   1.858  -7.500  1.00  0.00     0.000 A 
ATOM     19  C   UNL     1      -7.314   2.797  -6.713  1.00  0.00     0.002 A 
ENDBRANCH  11  13
ENDBRANCH   6  11
BRANCH   9  20
ATOM     20  N   UNL     1      -3.168   5.135  -5.068  1.00  0.00    -0.368 N 
ATOM     21  H   UNL     1      -2.496   5.839  -4.729  1.00  0.00     0.159 HD
ATOM     22  H   UNL     1      -3.906   5.406  -5.734  1.00  0.00     0.159 HD
ENDBRANCH   9  20
ENDBRANCH   4   5
ENDBRANCH   1   4
BRANCH   1  23
ATOM     23  C   UNL     1      -0.423   1.631  -0.024  1.00  0.00     0.274 C 
BRANCH  23  24
ATOM     24  C   UNL     1      -0.972   1.820   1.391  1.00  0.00     0.107 C 
BRANCH  24  25
ATOM     25  C   UNL     1      -2.110   0.858   1.621  1.00  0.00    -0.035 A 
ATOM     26  C   UNL     1      -3.376   1.339   1.899  1.00  0.00     0.004 A 
ATOM     27  C   UNL     1      -1.888  -0.504   1.549  1.00  0.00     0.004 A 
ATOM     28  C   UNL     1      -4.419   0.457   2.110  1.00  0.00     0.000 A 
ATOM     29  C   UNL     1      -2.930  -1.386   1.764  1.00  0.00     0.000 A 
ATOM     30  C   UNL     1      -4.196  -0.906   2.042  1.00  0.00     0.000 A 
ENDBRANCH  24  25
BRANCH  24  31
ATOM     31  C   UNL     1       0.121   1.554   2.394  1.00  0.00    -0.001 A 
ATOM     32  C   UNL     1       0.041   1.719   3.738  1.00  0.00     0.051 A 
ATOM     33  C   UNL     1       1.467   1.063   2.105  1.00  0.00     0.004 A 
ATOM     34  N   UNL     1       1.240   1.374   4.317  1.00  0.00    -0.354 N 
ATOM     35  C   UNL     1       2.130   0.974   3.344  1.00  0.00     0.046 A 
ATOM     36  C   UNL     1       2.141   0.722   0.928  1.00  0.00     0.010 A 
ATOM     37  H   UNL     1       1.443   1.409   5.326  1.00  0.00     0.167 HD
ATOM     38  C   UNL     1       3.448   0.532   3.381  1.00  0.00     0.027 A 
ATOM     39  C   UNL     1       3.436   0.291   0.989  1.00  0.00     0.001 A 
ATOM     40  C   UNL     1       4.091   0.195   2.209  1.00  0.00     0.002 A 
BRANCH  32  41
ATOM     41  C   UNL     1      -1.153   2.196   4.469  1.00  0.00    -0.002 A 
ATOM     42  C   UNL     1      -1.565   1.550   5.635  1.00  0.00     0.010 A 
ATOM     43  C   UNL     1      -1.869   3.297   3.999  1.00  0.00     0.010 A 
ATOM     44  C   UNL     1      -2.680   1.999   6.313  1.00  0.00     0.001 A 
ATOM     45  C   UNL     1      -2.986   3.733   4.682  1.00  0.00     0.001 A 
ATOM     46  C   UNL     1      -3.388   3.089   5.838  1.00  0.00     0.000 A 
ENDBRANCH  32  41
ENDBRANCH  24  31
ENDBRANCH  23  24
ENDBRANCH   1  23
TORSDOF 10
