REMARK SMILES Cc1ccc([C@H](NCC(=O)c2c(N)n(Cc3ccccc3)c(=O)n(C)c2=O)c2ccccc2)cc1
REMARK SMILES IDX 8 1 7 2 6 4 5 5 1 6 2 7 35 8 3 9 34 10 4 11 28 12 33 13
REMARK SMILES IDX 29 14 32 15 30 16 31 17 9 18 10 19 11 20 26 21 12 22 24 23
REMARK SMILES IDX 27 24 14 25 22 26 25 27 23 28 13 29 15 32 16 33 21 34 17 35
REMARK SMILES IDX 20 36 18 37 19 38
REMARK H PARENT 7 3 13 30 13 31
REMARK Flexibility Score: inf
ROOT
ATOM      1  C   UNL     1      -0.776   1.481  -1.157  1.00  0.00     0.163 C 
ENDROOT
BRANCH   1   2
ATOM      2  N   UNL     1       0.011   0.954  -0.035  1.00  0.00    -0.299 NA
ATOM      3  H   UNL     1       0.036  -0.074  -0.091  1.00  0.00     0.124 HD
BRANCH   2   4
ATOM      4  C   UNL     1       1.385   1.473  -0.065  1.00  0.00     0.115 C 
BRANCH   4   5
ATOM      5  C   UNL     1       1.963   1.447   1.327  1.00  0.00    -0.027 A 
ATOM      6  C   UNL     1       3.599   1.375   5.272  1.00  0.00     0.044 C 
ATOM      7  C   UNL     1       3.022   1.400   3.880  1.00  0.00    -0.051 A 
ATOM      8  C   UNL     1       2.238   0.351   3.437  1.00  0.00     0.004 A 
ATOM      9  C   UNL     1       3.276   2.473   3.046  1.00  0.00     0.004 A 
ATOM     10  C   UNL     1       1.704   0.377   2.163  1.00  0.00     0.006 A 
ATOM     11  C   UNL     1       2.747   2.496   1.769  1.00  0.00     0.006 A 
ENDBRANCH   4   5
BRANCH   4  12
ATOM     12  C   UNL     1       2.227   0.615  -0.974  1.00  0.00    -0.027 A 
ATOM     13  C   UNL     1       3.157   1.202  -1.812  1.00  0.00     0.006 A 
ATOM     14  C   UNL     1       2.072  -0.758  -0.967  1.00  0.00     0.006 A 
ATOM     15  C   UNL     1       3.929   0.415  -2.646  1.00  0.00     0.000 A 
ATOM     16  C   UNL     1       2.841  -1.545  -1.805  1.00  0.00     0.000 A 
ATOM     17  C   UNL     1       3.771  -0.958  -2.643  1.00  0.00     0.000 A 
ENDBRANCH   4  12
ENDBRANCH   2   4
ENDBRANCH   1   2
BRANCH   1  18
ATOM     18  C   UNL     1      -2.176   0.928  -1.093  1.00  0.00     0.185 C 
ATOM     19  O   UNL     1      -2.488   0.167  -0.198  1.00  0.00    -0.292 OA
BRANCH  18  20
ATOM     20  C   UNL     1      -3.125   1.293  -2.071  1.00  0.00     0.125 A 
ATOM     21  C   UNL     1      -2.817   2.312  -3.083  1.00  0.00     0.269 A 
ATOM     22  C   UNL     1      -4.398   0.697  -2.106  1.00  0.00     0.124 A 
ATOM     23  N   UNL     1      -3.759   2.619  -3.998  1.00  0.00    -0.263 N 
ATOM     24  O   UNL     1      -1.732   2.864  -3.098  1.00  0.00    -0.268 OA
ATOM     25  N   UNL     1      -5.282   1.084  -3.072  1.00  0.00    -0.275 N 
ATOM     26  C   UNL     1      -4.958   2.016  -3.981  1.00  0.00     0.332 A 
ATOM     27  C   UNL     1      -3.472   3.629  -5.020  1.00  0.00     0.158 C 
ATOM     28  O   UNL     1      -5.781   2.326  -4.821  1.00  0.00    -0.247 OA
BRANCH  22  29
ATOM     29  N   UNL     1      -4.743  -0.250  -1.192  1.00  0.00    -0.384 N 
ATOM     30  H   UNL     1      -4.064  -0.531  -0.469  1.00  0.00     0.158 HD
ATOM     31  H   UNL     1      -5.676  -0.684  -1.220  1.00  0.00     0.158 HD
ENDBRANCH  22  29
BRANCH  25  32
ATOM     32  C   UNL     1      -6.611   0.469  -3.116  1.00  0.00     0.164 C 
BRANCH  32  33
ATOM     33  C   UNL     1      -7.565   1.271  -2.269  1.00  0.00    -0.028 A 
ATOM     34  C   UNL     1      -8.281   2.311  -2.832  1.00  0.00     0.005 A 
ATOM     35  C   UNL     1      -7.728   0.964  -0.931  1.00  0.00     0.005 A 
ATOM     36  C   UNL     1      -9.157   3.047  -2.056  1.00  0.00     0.000 A 
ATOM     37  C   UNL     1      -8.599   1.704  -0.154  1.00  0.00     0.000 A 
ATOM     38  C   UNL     1      -9.316   2.743  -0.716  1.00  0.00     0.000 A 
ENDBRANCH  32  33
ENDBRANCH  25  32
ENDBRANCH  18  20
ENDBRANCH   1  18
TORSDOF 9
