REMARK SMILES CC(C)[C@H](CNC(=O)N[C@H]1CCOc2ccccc21)[N@@H+]1CCc2ccccc2C1
REMARK SMILES IDX 5 1 4 2 2 3 1 4 3 5 20 6 29 7 21 8 28 10 22 11 23 12 27 13
REMARK SMILES IDX 24 14 26 15 25 16 6 17 7 18 8 20 9 21 10 23 19 24 11 25
REMARK SMILES IDX 14 26 18 27 12 28 13 29 15 30 17 31 16 32
REMARK H PARENT 20 9 6 19 9 22
REMARK Flexibility Score: inf
ROOT
ATOM      1  C   UNL     1       0.652   3.805  -1.162  1.00  0.00     0.182 C 
ENDROOT
BRANCH   1   2
ATOM      2  C   UNL     1       1.161   3.519   0.253  1.00  0.00     0.206 C 
BRANCH   2   3
ATOM      3  C   UNL     1       0.066   3.859   1.267  1.00  0.00     0.043 C 
ATOM      4  C   UNL     1       0.517   3.434   2.665  1.00  0.00     0.014 C 
ATOM      5  C   UNL     1      -0.193   5.367   1.251  1.00  0.00     0.014 C 
ENDBRANCH   2   3
BRANCH   2   6
ATOM      6  N   UNL     1       1.511   2.097   0.369  1.00  0.00    -0.327 N 
ATOM      7  C   UNL     1       0.415   1.246  -0.103  1.00  0.00     0.299 C 
ATOM      8  C   UNL     1       2.746   1.796  -0.373  1.00  0.00     0.267 C 
ATOM      9  H   UNL     1       1.673   1.896   1.366  1.00  0.00     0.348 HD
ATOM     10  C   UNL     1       0.823  -0.204  -0.073  1.00  0.00     0.010 A 
ATOM     11  C   UNL     1       3.258   0.427   0.073  1.00  0.00     0.097 C 
ATOM     12  C   UNL     1       2.145  -0.586   0.004  1.00  0.00    -0.034 A 
ATOM     13  C   UNL     1      -0.171  -1.171  -0.126  1.00  0.00     0.010 A 
ATOM     14  C   UNL     1       2.474  -1.933   0.023  1.00  0.00     0.004 A 
ATOM     15  C   UNL     1       0.157  -2.511  -0.104  1.00  0.00     0.001 A 
ATOM     16  C   UNL     1       1.484  -2.894  -0.031  1.00  0.00     0.000 A 
ENDBRANCH   2   6
ENDBRANCH   1   2
BRANCH   1  17
ATOM     17  N   UNL     1       0.522   5.252  -1.351  1.00  0.00    -0.332 N 
ATOM     18  C   UNL     1      -0.034   5.737  -2.478  1.00  0.00     0.315 C 
ATOM     19  H   UNL     1       0.857   5.899  -0.622  1.00  0.00     0.165 HD
ATOM     20  O   UNL     1      -0.428   4.974  -3.339  1.00  0.00    -0.249 OA
ATOM     21  N   UNL     1      -0.153   7.069  -2.652  1.00  0.00    -0.331 N 
ATOM     22  H   UNL     1       0.181   7.715  -1.923  1.00  0.00     0.166 HD
BRANCH  21  23
ATOM     23  C   UNL     1      -0.757   7.596  -3.878  1.00  0.00     0.121 C 
ATOM     24  C   UNL     1       0.293   7.690  -4.955  1.00  0.00     0.017 A 
ATOM     25  C   UNL     1      -1.339   8.985  -3.603  1.00  0.00     0.071 C 
ATOM     26  C   UNL     1       0.371   8.789  -5.793  1.00  0.00     0.124 A 
ATOM     27  C   UNL     1       1.194   6.648  -5.101  1.00  0.00     0.010 A 
ATOM     28  C   UNL     1      -1.695   9.633  -4.947  1.00  0.00     0.232 C 
ATOM     29  O   UNL     1      -0.488   9.835  -5.683  1.00  0.00    -0.493 OA
ATOM     30  C   UNL     1       1.352   8.836  -6.779  1.00  0.00     0.047 A 
ATOM     31  C   UNL     1       2.167   6.699  -6.079  1.00  0.00     0.001 A 
ATOM     32  C   UNL     1       2.245   7.794  -6.920  1.00  0.00     0.004 A 
ENDBRANCH  21  23
ENDBRANCH   1  17
TORSDOF 5
