REMARK SMILES Oc1ccc2c3c1O[C@@H]1c4[nH]c5ccc(N=C=S)cc5c4C[C@]4(O)[C@@H](C2)[N@@H+](CC2CC2)CC[C@]314
REMARK SMILES IDX 14 1 13 2 12 3 20 4 19 5 15 6 21 7 10 8 11 9 9 10 34 11
REMARK SMILES IDX 33 12 32 13 27 14 25 15 23 16 22 17 26 18 5 19 6 20 7 21
REMARK SMILES IDX 2 22 3 23 4 24 8 25 16 28 17 29 18 30 24 31 28 33 29 34
REMARK SMILES IDX 31 35 30 36 1 37
REMARK H PARENT 11 26 27 27 24 32 1 38
REMARK Flexibility Score: inf
ROOT
ATOM      1  C   UNL     1       3.756  10.676   0.490  1.00  0.00     0.031 A 
ATOM      2  C   UNL     1       4.099   9.393   0.184  1.00  0.00     0.029 A 
ATOM      3  C   UNL     1       3.061   8.473  -0.031  1.00  0.00     0.046 A 
ATOM      4  C   UNL     1       1.694   8.851   0.068  1.00  0.00     0.005 A 
ATOM      5  C   UNL     1       1.309  10.149   0.379  1.00  0.00     0.039 A 
ATOM      6  C   UNL     1       2.357  11.088   0.593  1.00  0.00     0.075 A 
ATOM      7  C   UNL     1       0.914   7.654  -0.208  1.00  0.00    -0.012 A 
ATOM      8  C   UNL     1       1.824   6.665  -0.471  1.00  0.00     0.061 A 
ATOM      9  N   UNL     1       3.093   7.152  -0.350  1.00  0.00    -0.355 N 
ATOM     10  C   UNL     1       1.341   5.314  -0.820  1.00  0.00     0.234 C 
ATOM     11  C   UNL     1       0.004   5.212  -0.062  1.00  0.00     0.082 C 
ATOM     12  C   UNL     1       0.125   5.467   1.428  1.00  0.00     0.081 C 
ATOM     13  C   UNL     1      -1.237   5.160   2.069  1.00  0.00     0.263 C 
ATOM     14  N   UNL     1      -2.291   5.937   1.408  1.00  0.00    -0.330 N 
ATOM     15  C   UNL     1      -2.358   5.702  -0.039  1.00  0.00     0.222 C 
ATOM     16  C   UNL     1      -1.039   6.144  -0.680  1.00  0.00     0.134 C 
ATOM     17  C   UNL     1      -0.596   7.540  -0.204  1.00  0.00     0.081 C 
ATOM     18  C   UNL     1      -2.747   4.258  -0.331  1.00  0.00     0.104 C 
ATOM     19  C   UNL     1      -1.611   3.298  -0.462  1.00  0.00    -0.034 A 
ATOM     20  C   UNL     1      -0.334   3.795  -0.359  1.00  0.00     0.015 A 
ATOM     21  C   UNL     1       0.878   3.146  -0.580  1.00  0.00     0.166 A 
ATOM     22  C   UNL     1       0.795   1.782  -0.850  1.00  0.00     0.158 A 
ATOM     23  C   UNL     1      -0.486   1.230  -0.909  1.00  0.00     0.050 A 
ATOM     24  C   UNL     1      -1.663   1.947  -0.741  1.00  0.00     0.008 A 
ATOM     25  O   UNL     1       1.905   4.056  -0.501  1.00  0.00    -0.479 OA
ATOM     26  H   UNL     1       3.951   6.598  -0.483  1.00  0.00     0.166 HD
ATOM     27  H   UNL     1      -2.039   6.929   1.529  1.00  0.00     0.348 HD
ENDROOT
BRANCH   6  28
ATOM     28  N   UNL     1       2.062  12.345   0.890  1.00  0.00    -0.195 NA
ATOM     29  C   UNL     1       2.979  13.174   1.079  1.00  0.00     0.064 C 
ATOM     30  S   UNL     1       4.118  14.204   1.315  1.00  0.00    -0.006 S 
ENDBRANCH   6  28
BRANCH  16  31
ATOM     31  O   UNL     1      -1.079   6.041  -2.105  1.00  0.00    -0.382 OA
ATOM     32  H   UNL     1      -1.289   5.104  -2.343  1.00  0.00     0.211 HD
ENDBRANCH  16  31
BRANCH  14  33
ATOM     33  C   UNL     1      -3.595   5.701   2.041  1.00  0.00     0.266 C 
BRANCH  33  34
ATOM     34  C   UNL     1      -3.465   5.869   3.556  1.00  0.00     0.044 C 
ATOM     35  C   UNL     1      -4.744   5.777   4.390  1.00  0.00     0.010 C 
ATOM     36  C   UNL     1      -3.721   4.639   4.428  1.00  0.00     0.010 C 
ENDBRANCH  33  34
ENDBRANCH  14  33
BRANCH  22  37
ATOM     37  O   UNL     1       1.908   1.026  -1.046  1.00  0.00    -0.504 OA
ATOM     38  H   UNL     1       2.447   1.170  -0.228  1.00  0.00     0.293 HD
ENDBRANCH  22  37
TORSDOF 5
