REMARK SMILES Cc1cc2occ(CC(=O)N(CC(C)C)c3c(N)n(CC(C)C)c(=O)[nH]c3=O)c2cc1C(C)C
REMARK SMILES IDX 9 1 10 2 8 3 7 4 1 5 2 6 31 7 3 8 30 9 4 10 29 11 5 12 6 13
REMARK SMILES IDX 32 14 33 15 34 16 11 17 12 18 13 19 14 20 15 21 16 22 27 23
REMARK SMILES IDX 17 24 26 25 28 26 19 27 24 28 25 30 18 31 20 34 21 35 22 36
REMARK SMILES IDX 23 37
REMARK H PARENT 26 29 18 32 18 33
REMARK Flexibility Score: inf
ROOT
ATOM      1  C   UNL     1      -2.335   4.885   0.033  1.00  0.00     0.231 C 
ATOM      2  O   UNL     1      -1.296   5.510   0.087  1.00  0.00    -0.274 OA
ENDROOT
BRANCH   1   3
ATOM      3  C   UNL     1      -3.640   5.609  -0.177  1.00  0.00     0.140 C 
BRANCH   3   4
ATOM      4  C   UNL     1      -3.369   7.072  -0.419  1.00  0.00     0.008 A 
ATOM      5  C   UNL     1      -2.050  10.439  -4.833  1.00  0.00     0.045 C 
ATOM      6  C   UNL     1      -2.399   9.479  -3.725  1.00  0.00    -0.044 A 
ATOM      7  C   UNL     1      -2.557   8.131  -4.008  1.00  0.00    -0.042 A 
ATOM      8  C   UNL     1      -2.558   9.952  -2.439  1.00  0.00     0.051 A 
ATOM      9  C   UNL     1      -2.876   7.243  -3.005  1.00  0.00     0.016 A 
ATOM     10  C   UNL     1      -2.879   9.073  -1.413  1.00  0.00     0.134 A 
ATOM     11  C   UNL     1      -3.033   7.706  -1.700  1.00  0.00     0.024 A 
ATOM     12  O   UNL     1      -3.094   9.231  -0.091  1.00  0.00    -0.464 OA
ATOM     13  C   UNL     1      -3.381   8.054   0.492  1.00  0.00     0.200 A 
BRANCH   7  14
ATOM     14  C   UNL     1      -2.379   7.635  -5.420  1.00  0.00     0.013 C 
ATOM     15  C   UNL     1      -1.341   6.511  -5.439  1.00  0.00     0.012 C 
ATOM     16  C   UNL     1      -3.715   7.106  -5.947  1.00  0.00     0.012 C 
ENDBRANCH   7  14
ENDBRANCH   3   4
ENDBRANCH   1   3
BRANCH   1  17
ATOM     17  N   UNL     1      -2.321   3.542   0.160  1.00  0.00    -0.304 N 
BRANCH  17  18
ATOM     18  C   UNL     1      -3.583   2.797   0.197  1.00  0.00     0.129 C 
BRANCH  18  19
ATOM     19  C   UNL     1      -4.021   2.464  -1.230  1.00  0.00     0.003 C 
ATOM     20  C   UNL     1      -3.030   1.477  -1.850  1.00  0.00     0.009 C 
ATOM     21  C   UNL     1      -5.416   1.837  -1.202  1.00  0.00     0.009 C 
ENDBRANCH  18  19
ENDBRANCH  17  18
BRANCH  17  22
ATOM     22  C   UNL     1      -1.093   2.855   0.256  1.00  0.00     0.151 A 
ATOM     23  C   UNL     1      -0.781   2.104   1.406  1.00  0.00     0.279 A 
ATOM     24  C   UNL     1      -0.179   2.902  -0.776  1.00  0.00     0.137 A 
ATOM     25  N   UNL     1       0.400   1.460   1.479  1.00  0.00    -0.272 N 
ATOM     26  O   UNL     1      -1.572   2.042   2.332  1.00  0.00    -0.267 OA
ATOM     27  N   UNL     1       1.010   2.222  -0.652  1.00  0.00    -0.278 N 
ATOM     28  C   UNL     1       1.279   1.518   0.462  1.00  0.00     0.330 A 
ATOM     29  H   UNL     1       0.633   0.917   2.322  1.00  0.00     0.175 HD
ATOM     30  O   UNL     1       2.335   0.923   0.552  1.00  0.00    -0.248 OA
BRANCH  24  31
ATOM     31  N   UNL     1      -0.453   3.622  -1.915  1.00  0.00    -0.383 N 
ATOM     32  H   UNL     1      -1.347   4.128  -1.996  1.00  0.00     0.158 HD
ATOM     33  H   UNL     1       0.231   3.655  -2.683  1.00  0.00     0.158 HD
ENDBRANCH  24  31
BRANCH  27  34
ATOM     34  C   UNL     1       1.989   2.263  -1.741  1.00  0.00     0.132 C 
BRANCH  34  35
ATOM     35  C   UNL     1       1.723   1.111  -2.711  1.00  0.00     0.003 C 
ATOM     36  C   UNL     1       2.664   1.226  -3.912  1.00  0.00     0.009 C 
ATOM     37  C   UNL     1       1.966  -0.222  -1.999  1.00  0.00     0.009 C 
ENDBRANCH  34  35
ENDBRANCH  27  34
ENDBRANCH  17  22
ENDBRANCH   1  17
TORSDOF 10
