REMARK SMILES Cc1sc2nc(CN3CCOCC3)nc(NCc3cc(Cl)c4c(c3)OCCCO4)c2c1C
REMARK SMILES IDX 17 1 16 2 15 4 32 5 31 6 30 7 2 8 4 9 3 10 1 11 5 12 14 13
REMARK SMILES IDX 6 14 7 15 8 16 13 17 9 18 12 19 10 20 11 21 18 22 19 23
REMARK SMILES IDX 24 24 20 25 23 26 22 27 21 28 25 29 26 30 29 32 28 33 27 34
REMARK H PARENT 16 3
REMARK Flexibility Score: 90.00
ROOT
ATOM      1  C   UNL     1       3.534  -2.894   1.246  1.00  0.00     0.150 C 
ENDROOT
BRANCH   1   2
ATOM      2  N   UNL     1       3.164  -1.568   0.743  1.00  0.00    -0.365 N 
ATOM      3  H   UNL     1       3.894  -0.913   0.431  1.00  0.00     0.162 HD
BRANCH   2   4
ATOM      4  C   UNL     1       1.832  -1.197   0.688  1.00  0.00     0.139 A 
ATOM      5  C   UNL     1       3.811   1.118  -0.039  1.00  0.00     0.046 C 
ATOM      6  C   UNL     1       2.311   1.260  -0.023  1.00  0.00    -0.024 A 
ATOM      7  C   UNL     1       1.469   0.129   0.327  1.00  0.00     0.057 A 
ATOM      8  C   UNL     1       1.737   2.433  -0.332  1.00  0.00     0.007 A 
ATOM      9  C   UNL     1       0.082   0.393   0.305  1.00  0.00     0.129 A 
ATOM     10  S   UNL     1      -0.007   2.098  -0.172  1.00  0.00    -0.120 S 
ATOM     11  C   UNL     1       2.407   3.725  -0.721  1.00  0.00     0.057 C 
ATOM     12  N   UNL     1      -0.800  -0.542   0.601  1.00  0.00    -0.220 NA
ATOM     13  N   UNL     1       0.881  -2.072   0.970  1.00  0.00    -0.214 NA
ATOM     14  C   UNL     1      -0.401  -1.756   0.928  1.00  0.00     0.146 A 
BRANCH  14  15
ATOM     15  C   UNL     1      -1.430  -2.804   1.262  1.00  0.00     0.162 C 
BRANCH  15  16
ATOM     16  N   UNL     1      -1.815  -3.521   0.039  1.00  0.00    -0.291 NA
ATOM     17  C   UNL     1      -2.633  -4.701   0.354  1.00  0.00     0.113 C 
ATOM     18  C   UNL     1      -2.522  -2.630  -0.893  1.00  0.00     0.113 C 
ATOM     19  C   UNL     1      -2.961  -5.449  -0.942  1.00  0.00     0.175 C 
ATOM     20  C   UNL     1      -2.851  -3.398  -2.175  1.00  0.00     0.175 C 
ATOM     21  O   UNL     1      -3.620  -4.559  -1.846  1.00  0.00    -0.379 OA
ENDBRANCH  15  16
ENDBRANCH  14  15
ENDBRANCH   2   4
ENDBRANCH   1   2
BRANCH   1  22
ATOM     22  C   UNL     1       5.033  -3.046   1.202  1.00  0.00    -0.023 A 
ATOM     23  C   UNL     1       5.640  -3.564   0.074  1.00  0.00     0.030 A 
ATOM     24  C   UNL     1       5.796  -2.673   2.295  1.00  0.00     0.056 A 
ATOM     25  C   UNL     1       7.017  -3.701   0.025  1.00  0.00     0.087 A 
ATOM     26  C   UNL     1       7.173  -2.814   2.252  1.00  0.00     0.163 A 
ATOM     27  C   UNL     1       7.783  -3.328   1.117  1.00  0.00     0.179 A 
ATOM     28  Cl  UNL     1       7.779  -4.345  -1.396  1.00  0.00    -0.080 Cl
BRANCH  26  29
ATOM     29  O   UNL     1       7.936  -2.448   3.322  1.00  0.00    -0.489 OA
BRANCH  29  30
ATOM     30  C   UNL     1       8.579  -3.514   4.023  1.00  0.00     0.233 CG0
ATOM     31  G   UNL     1       9.893  -3.885   3.354  1.00  0.00     0.000 G0
ENDBRANCH  29  30
ENDBRANCH  26  29
BRANCH  27  32
ATOM     32  O   UNL     1       9.141  -3.463   1.084  1.00  0.00    -0.488 OA
BRANCH  32  33
ATOM     33  C   UNL     1       9.692  -4.451   1.957  1.00  0.00     0.233 C 
BRANCH  33  34
ATOM     34  C   UNL     1       9.893  -3.885   3.354  1.00  0.00     0.083 CG0
ATOM     35  G   UNL     1       8.579  -3.514   4.023  1.00  0.00     0.000 G0
ENDBRANCH  33  34
ENDBRANCH  32  33
ENDBRANCH  27  32
ENDBRANCH   1  22
TORSDOF 5
