REMARK SMILES [H]/N=C1\C(C#N)C2=CC[N@@H+](Cc3ccccc3)C[C@@H]2[C@H](c2ccc(OC)c3ccccc23)C1(C#N)C#N
REMARK SMILES IDX 20 1 19 2 18 3 9 4 8 5 7 6 4 7 3 8 33 9 2 10 10 11 1 12
REMARK SMILES IDX 21 14 24 15 27 16 23 17 32 18 28 19 22 20 31 21 29 22 30 23
REMARK SMILES IDX 25 24 26 25 34 26 35 27 36 28 37 29 5 30 6 31 11 32 12 33
REMARK SMILES IDX 17 34 13 35 16 36 14 37 15 38
REMARK H PARENT 10 13
REMARK Flexibility Score: inf
ROOT
ATOM      1  C   UNL     1      -0.711   1.949   1.285  1.00  0.00     0.073 C 
ATOM      2  C   UNL     1      -2.170   1.587   1.554  1.00  0.00     0.082 C 
ATOM      3  C   UNL     1      -2.530   1.780   3.009  1.00  0.00     0.271 C 
ATOM      4  C   UNL     1      -4.494   3.059   2.446  1.00  0.00     0.291 C 
ATOM      5  C   UNL     1      -4.116   3.018   0.985  1.00  0.00     0.035 C 
ATOM      6  C   UNL     1      -3.028   2.375   0.605  1.00  0.00    -0.036 C 
ATOM      7  C   UNL     1      -2.601   2.413  -0.817  1.00  0.00     0.166 C 
ATOM      8  C   UNL     1      -1.341   2.023  -1.140  1.00  0.00     0.065 C 
ATOM      9  C   UNL     1      -0.346   1.523  -0.137  1.00  0.00     0.189 C 
ATOM     10  N   UNL     1      -0.961   2.089  -2.451  1.00  0.00    -0.305 NA
ATOM     11  N   UNL     1      -3.238   3.051   3.225  1.00  0.00    -0.327 N 
ATOM     12  H   UNL     1      -1.607   2.425  -3.179  1.00  0.00     0.187 HD
ATOM     13  H   UNL     1      -2.641   3.830   2.910  1.00  0.00     0.348 HD
ENDROOT
BRANCH   1  14
ATOM     14  C   UNL     1      -0.525   3.438   1.429  1.00  0.00    -0.033 A 
ATOM     15  C   UNL     1      -0.196   6.205   1.660  1.00  0.00     0.126 A 
ATOM     16  C   UNL     1       0.208   5.370   2.720  1.00  0.00     0.024 A 
ATOM     17  C   UNL     1      -0.742   5.652   0.536  1.00  0.00     0.047 A 
ATOM     18  C   UNL     1       0.041   3.968   2.601  1.00  0.00    -0.011 A 
ATOM     19  C   UNL     1       0.774   5.899   3.891  1.00  0.00     0.012 A 
ATOM     20  C   UNL     1      -0.899   4.274   0.421  1.00  0.00     0.008 A 
ATOM     21  C   UNL     1       0.444   3.134   3.659  1.00  0.00     0.009 A 
ATOM     22  C   UNL     1       1.153   5.061   4.895  1.00  0.00     0.001 A 
ATOM     23  C   UNL     1       0.989   3.683   4.779  1.00  0.00     0.001 A 
BRANCH  15  24
ATOM     24  O   UNL     1      -0.044   7.552   1.754  1.00  0.00    -0.496 OA
ATOM     25  C   UNL     1      -0.477   8.333   0.639  1.00  0.00     0.278 C 
ENDBRANCH  15  24
ENDBRANCH   1  14
BRANCH   9  26
ATOM     26  C   UNL     1      -0.299   0.053  -0.200  1.00  0.00     0.091 C 
ATOM     27  N   UNL     1      -0.263  -1.081  -0.248  1.00  0.00    -0.196 NA
ENDBRANCH   9  26
BRANCH   9  28
ATOM     28  C   UNL     1       0.983   2.059  -0.473  1.00  0.00     0.091 C 
ATOM     29  N   UNL     1       2.009   2.473  -0.732  1.00  0.00    -0.196 NA
ENDBRANCH   9  28
BRANCH   7  30
ATOM     30  C   UNL     1      -3.506   2.856  -1.834  1.00  0.00     0.076 C 
ATOM     31  N   UNL     1      -4.225   3.207  -2.641  1.00  0.00    -0.197 NA
ENDBRANCH   7  30
BRANCH  11  32
ATOM     32  C   UNL     1      -3.532   3.228   4.666  1.00  0.00     0.299 C 
BRANCH  32  33
ATOM     33  C   UNL     1      -4.047   4.626   4.892  1.00  0.00     0.006 A 
ATOM     34  C   UNL     1      -5.404   4.881   4.827  1.00  0.00     0.009 A 
ATOM     35  C   UNL     1      -3.164   5.652   5.170  1.00  0.00     0.009 A 
ATOM     36  C   UNL     1      -5.877   6.163   5.035  1.00  0.00     0.001 A 
ATOM     37  C   UNL     1      -3.636   6.935   5.373  1.00  0.00     0.001 A 
ATOM     38  C   UNL     1      -4.993   7.191   5.307  1.00  0.00     0.000 A 
ENDBRANCH  32  33
ENDBRANCH  11  32
TORSDOF 7
