REMARK SMILES O=C(Cc1n[nH]c(=O)c2ccccc12)NC[C@@H](c1ccccc1Cl)c1c[nH]c2ccccc12
REMARK SMILES IDX 2 1 1 2 15 3 3 5 4 6 12 7 13 8 11 9 14 10 10 11 9 12 7 13
REMARK SMILES IDX 5 14 6 15 8 16 16 18 17 19 18 20 23 21 19 22 22 23 24 24
REMARK SMILES IDX 20 25 21 26 25 27 33 28 26 29 28 30 32 31 27 32 29 33 31 34
REMARK SMILES IDX 30 36
REMARK H PARENT 15 4 6 17 27 35
REMARK Flexibility Score: inf
ROOT
ATOM      1  C   UNL     1       3.030   3.839  -3.672  1.00  0.00     0.226 C 
ATOM      2  O   UNL     1       4.097   3.276  -3.798  1.00  0.00    -0.275 OA
ATOM      3  N   UNL     1       2.517   4.042  -2.442  1.00  0.00    -0.355 N 
ATOM      4  H   UNL     1       1.610   4.519  -2.335  1.00  0.00     0.163 HD
ENDROOT
BRANCH   1   5
ATOM      5  C   UNL     1       2.278   4.310  -4.890  1.00  0.00     0.158 C 
BRANCH   5   6
ATOM      6  C   UNL     1       3.062   3.963  -6.129  1.00  0.00     0.078 A 
ATOM      7  C   UNL     1       0.873   5.290  -8.858  1.00  0.00     0.001 A 
ATOM      8  C   UNL     1       1.318   4.978  -7.604  1.00  0.00     0.011 A 
ATOM      9  C   UNL     1       1.617   4.958  -9.983  1.00  0.00     0.001 A 
ATOM     10  C   UNL     1       2.536   4.313  -7.449  1.00  0.00     0.011 A 
ATOM     11  C   UNL     1       2.825   4.306  -9.860  1.00  0.00     0.014 A 
ATOM     12  C   UNL     1       3.299   3.979  -8.591  1.00  0.00     0.050 A 
ATOM     13  C   UNL     1       4.578   3.285  -8.393  1.00  0.00     0.272 A 
ATOM     14  N   UNL     1       4.202   3.349  -6.026  1.00  0.00    -0.176 NA
ATOM     15  N   UNL     1       4.974   3.001  -7.135  1.00  0.00    -0.243 N 
ATOM     16  O   UNL     1       5.268   2.972  -9.347  1.00  0.00    -0.267 OA
ATOM     17  H   UNL     1       5.870   2.514  -6.990  1.00  0.00     0.194 HD
ENDBRANCH   5   6
ENDBRANCH   1   5
BRANCH   3  18
ATOM     18  C   UNL     1       3.248   3.584  -1.258  1.00  0.00     0.129 C 
BRANCH  18  19
ATOM     19  C   UNL     1       2.452   3.936   0.000  1.00  0.00     0.072 C 
BRANCH  19  20
ATOM     20  C   UNL     1       1.157   3.165   0.008  1.00  0.00    -0.020 A 
ATOM     21  C   UNL     1      -0.050   3.841   0.023  1.00  0.00     0.044 A 
ATOM     22  C   UNL     1       1.175   1.783   0.000  1.00  0.00     0.006 A 
ATOM     23  C   UNL     1      -1.239   3.132   0.031  1.00  0.00     0.021 A 
ATOM     24  Cl  UNL     1      -0.074   5.576   0.032  1.00  0.00    -0.084 Cl
ATOM     25  C   UNL     1      -0.013   1.076   0.008  1.00  0.00     0.000 A 
ATOM     26  C   UNL     1      -1.219   1.750   0.017  1.00  0.00     0.002 A 
ENDBRANCH  19  20
BRANCH  19  27
ATOM     27  C   UNL     1       3.258   3.576   1.222  1.00  0.00    -0.013 A 
ATOM     28  C   UNL     1       3.703   4.493   2.274  1.00  0.00     0.003 A 
ATOM     29  C   UNL     1       3.700   2.353   1.554  1.00  0.00     0.087 A 
ATOM     30  C   UNL     1       4.417   3.708   3.197  1.00  0.00     0.046 A 
ATOM     31  C   UNL     1       3.554   5.863   2.493  1.00  0.00     0.010 A 
ATOM     32  N   UNL     1       4.400   2.413   2.729  1.00  0.00    -0.361 N 
ATOM     33  C   UNL     1       4.968   4.311   4.323  1.00  0.00     0.026 A 
ATOM     34  C   UNL     1       4.104   6.436   3.605  1.00  0.00     0.001 A 
ATOM     35  H   UNL     1       4.847   1.610   3.193  1.00  0.00     0.166 HD
ATOM     36  C   UNL     1       4.809   5.666   4.519  1.00  0.00     0.002 A 
ENDBRANCH  19  27
ENDBRANCH  18  19
ENDBRANCH   3  18
TORSDOF 6
