REMARK SMILES Cc1ccc(C(=O)C2CCN(C(=O)c3cnn(-c4ccccc4F)c3-n3cccc3)CC2)c(C)c1
REMARK SMILES IDX 8 1 9 2 10 3 11 4 31 5 32 6 12 7 13 8 6 9 7 10 5 11 1 12
REMARK SMILES IDX 2 13 35 14 3 15 33 16 4 17 34 18 14 19 25 20 15 21 17 22
REMARK SMILES IDX 16 23 26 24 30 25 27 26 29 27 28 28 18 29 23 30 19 31 22 32
REMARK SMILES IDX 24 33 20 34 21 35
REMARK H PARENT
REMARK Flexibility Score: inf
ROOT
ATOM      1  C   UNL     1       1.681   1.581   0.433  1.00  0.00     0.065 C 
ATOM      2  C   UNL     1       1.674   2.148  -0.989  1.00  0.00     0.033 C 
ATOM      3  C   UNL     1       0.290   1.935  -1.612  1.00  0.00     0.120 C 
ATOM      4  N   UNL     1      -0.051   0.508  -1.529  1.00  0.00    -0.338 N 
ATOM      5  C   UNL     1       0.012  -0.158  -0.221  1.00  0.00     0.120 C 
ATOM      6  C   UNL     1       1.399   0.078   0.386  1.00  0.00     0.033 C 
ATOM      7  C   UNL     1      -0.416  -0.176  -2.631  1.00  0.00     0.259 C 
ATOM      8  O   UNL     1      -0.561   0.407  -3.689  1.00  0.00    -0.269 OA
ENDROOT
BRANCH   1   9
ATOM      9  C   UNL     1       3.031   1.819   1.060  1.00  0.00     0.166 C 
ATOM     10  O   UNL     1       3.908   0.991   0.944  1.00  0.00    -0.294 OA
BRANCH   9  11
ATOM     11  C   UNL     1       3.283   3.058   1.815  1.00  0.00     0.021 A 
ATOM     12  C   UNL     1       4.018   6.657   4.005  1.00  0.00     0.044 C 
ATOM     13  C   UNL     1       3.759   5.389   3.233  1.00  0.00    -0.051 A 
ATOM     14  C   UNL     1       4.721   4.395   3.200  1.00  0.00     0.007 A 
ATOM     15  C   UNL     1       2.560   5.225   2.561  1.00  0.00     0.004 A 
ATOM     16  C   UNL     1       4.492   3.231   2.496  1.00  0.00    -0.040 A 
ATOM     17  C   UNL     1       2.318   4.069   1.848  1.00  0.00     0.012 A 
ATOM     18  C   UNL     1       5.541   2.150   2.461  1.00  0.00     0.045 C 
ENDBRANCH   9  11
ENDBRANCH   1   9
BRANCH   7  19
ATOM     19  C   UNL     1      -0.640  -1.627  -2.555  1.00  0.00     0.103 A 
ATOM     20  C   UNL     1      -1.502  -2.373  -3.350  1.00  0.00     0.153 A 
ATOM     21  C   UNL     1      -0.022  -2.526  -1.656  1.00  0.00     0.151 A 
ATOM     22  N   UNL     1      -1.399  -3.659  -2.952  1.00  0.00    -0.213 N 
ATOM     23  N   UNL     1      -0.479  -3.723  -1.900  1.00  0.00    -0.174 NA
BRANCH  20  24
ATOM     24  N   UNL     1      -2.316  -1.887  -4.367  1.00  0.00    -0.308 N 
ATOM     25  C   UNL     1      -2.328  -2.331  -5.660  1.00  0.00     0.093 A 
ATOM     26  C   UNL     1      -3.242  -0.889  -4.239  1.00  0.00     0.093 A 
ATOM     27  C   UNL     1      -3.247  -1.618  -6.341  1.00  0.00     0.020 A 
ATOM     28  C   UNL     1      -3.824  -0.699  -5.440  1.00  0.00     0.020 A 
ENDBRANCH  20  24
BRANCH  22  29
ATOM     29  C   UNL     1      -2.100  -4.744  -3.496  1.00  0.00     0.103 A 
ATOM     30  C   UNL     1      -1.418  -5.897  -3.870  1.00  0.00     0.148 A 
ATOM     31  C   UNL     1      -3.475  -4.669  -3.668  1.00  0.00     0.031 A 
ATOM     32  C   UNL     1      -2.114  -6.967  -4.402  1.00  0.00     0.041 A 
ATOM     33  F   UNL     1      -0.079  -5.973  -3.710  1.00  0.00    -0.205 F 
ATOM     34  C   UNL     1      -4.163  -5.740  -4.204  1.00  0.00     0.002 A 
ATOM     35  C   UNL     1      -3.483  -6.887  -4.572  1.00  0.00     0.003 A 
ENDBRANCH  22  29
ENDBRANCH   7  19
TORSDOF 5
