REMARK SMILES C[C@H]1CCc2[nH]c3ccc(C(=O)NNC(=O)c4cc([N+](=O)[O-])c[nH]4)cc3c2C1
REMARK SMILES IDX 14 1 15 2 16 3 13 5 11 6 12 7 10 9 1 10 2 11 28 12 3 13
REMARK SMILES IDX 27 14 4 15 5 16 26 17 6 18 7 19 25 20 8 22 9 23 17 24 24 25
REMARK SMILES IDX 18 26 23 27 19 29 20 30 22 31 21 32
REMARK H PARENT 14 4 13 8 6 21 24 28
REMARK Flexibility Score: inf
ROOT
ATOM      1  N   UNL     1       3.078   3.481  -0.009  1.00  0.00    -0.262 N 
ATOM      2  C   UNL     1       1.758   3.209   0.002  1.00  0.00     0.286 C 
ATOM      3  O   UNL     1       0.949   4.119   0.014  1.00  0.00    -0.266 OA
ATOM      4  H   UNL     1       3.762   2.711  -0.019  1.00  0.00     0.191 HD
ENDROOT
BRANCH   1   5
ATOM      5  N   UNL     1       3.519   4.811  -0.006  1.00  0.00    -0.263 N 
ATOM      6  C   UNL     1       4.839   5.082  -0.018  1.00  0.00     0.269 C 
ATOM      7  O   UNL     1       5.647   4.173  -0.030  1.00  0.00    -0.267 OA
ATOM      8  H   UNL     1       2.835   5.580   0.004  1.00  0.00     0.191 HD
BRANCH   6   9
ATOM      9  C   UNL     1       5.304   6.484  -0.015  1.00  0.00     0.042 A 
ATOM     10  C   UNL     1      12.209   8.580   0.102  1.00  0.00     0.008 C 
ATOM     11  C   UNL     1      10.806   9.133   0.358  1.00  0.00    -0.009 C 
ATOM     12  C   UNL     1       9.761   8.086  -0.046  1.00  0.00     0.041 C 
ATOM     13  C   UNL     1      10.597  10.403  -0.470  1.00  0.00     0.010 C 
ATOM     14  C   UNL     1       8.402   8.738  -0.033  1.00  0.00    -0.019 A 
ATOM     15  C   UNL     1       9.300  11.093  -0.032  1.00  0.00     0.054 C 
ATOM     16  C   UNL     1       8.190  10.068  -0.025  1.00  0.00     0.019 A 
ATOM     17  C   UNL     1       7.095   8.089  -0.024  1.00  0.00     0.004 A 
ATOM     18  N   UNL     1       6.846  10.317  -0.011  1.00  0.00    -0.358 N 
ATOM     19  C   UNL     1       6.147   9.133  -0.010  1.00  0.00     0.046 A 
ATOM     20  C   UNL     1       6.667   6.763  -0.026  1.00  0.00     0.024 A 
ATOM     21  H   UNL     1       6.420  11.255  -0.002  1.00  0.00     0.166 HD
ATOM     22  C   UNL     1       4.787   8.830   0.002  1.00  0.00     0.027 A 
ATOM     23  C   UNL     1       4.372   7.531  -0.007  1.00  0.00     0.016 A 
ENDBRANCH   6   9
ENDBRANCH   1   5
BRANCH   2  24
ATOM     24  C   UNL     1       1.295   1.817  -0.001  1.00  0.00     0.113 A 
ATOM     25  N   UNL     1       2.093   0.695  -0.014  1.00  0.00    -0.351 N 
ATOM     26  C   UNL     1      -0.017   1.394   0.010  1.00  0.00     0.119 A 
ATOM     27  C   UNL     1       1.297  -0.402  -0.013  1.00  0.00     0.169 A 
ATOM     28  H   UNL     1       3.123   0.690  -0.024  1.00  0.00     0.166 HD
ATOM     29  C   UNL     1       0.002  -0.004   0.002  1.00  0.00     0.287 A 
BRANCH  29  30
ATOM     30  N   UNL     1      -1.182  -0.892   0.008  1.00  0.00     0.064 N 
ATOM     31  O   UNL     1      -2.302  -0.413   0.021  1.00  0.00    -0.258 OA
ATOM     32  O   UNL     1      -1.037  -2.101   0.000  1.00  0.00    -0.258 OA
ENDBRANCH  29  30
ENDBRANCH   2  24
TORSDOF 4
