REMARK SMILES COC(=O)c1ccc(COc2ccc([C@H]3NC(=O)c4cnn(-c5ccccc5)c4N3)cc2)cc1
REMARK SMILES IDX 9 1 8 2 5 3 34 4 6 5 33 6 7 7 3 8 4 9 2 10 1 11 10 12 11 13
REMARK SMILES IDX 32 14 12 15 31 16 13 17 14 18 15 19 16 20 30 21 17 22 29 24
REMARK SMILES IDX 19 26 18 27 22 28 20 29 21 30 23 31 28 32 24 33 27 34 25 35
REMARK SMILES IDX 26 36
REMARK H PARENT 16 23 30 25
REMARK Flexibility Score: inf
ROOT
ATOM      1  C   UNL     1       2.050   5.141  -0.437  1.00  0.00     0.265 C 
ENDROOT
BRANCH   1   2
ATOM      2  C   UNL     1       3.435   5.723  -0.546  1.00  0.00    -0.011 A 
ATOM      3  C   UNL     1       5.981   6.794  -0.746  1.00  0.00     0.060 A 
ATOM      4  C   UNL     1       5.411   6.572   0.509  1.00  0.00     0.016 A 
ATOM      5  C   UNL     1       5.262   6.475  -1.899  1.00  0.00     0.016 A 
ATOM      6  C   UNL     1       4.140   6.043   0.602  1.00  0.00     0.008 A 
ATOM      7  C   UNL     1       3.994   5.942  -1.792  1.00  0.00     0.008 A 
BRANCH   3   8
ATOM      8  C   UNL     1       7.340   7.365  -0.852  1.00  0.00     0.337 C 
ATOM      9  O   UNL     1       7.833   7.557  -1.945  1.00  0.00    -0.246 OA
BRANCH   8  10
ATOM     10  O   UNL     1       8.031   7.672   0.263  1.00  0.00    -0.465 OA
ATOM     11  C   UNL     1       9.359   8.230   0.082  1.00  0.00     0.282 C 
ENDBRANCH   8  10
ENDBRANCH   3   8
ENDBRANCH   1   2
BRANCH   1  12
ATOM     12  O   UNL     1       2.135   3.716  -0.385  1.00  0.00    -0.489 OA
BRANCH  12  13
ATOM     13  C   UNL     1       0.965   3.031  -0.285  1.00  0.00     0.119 A 
ATOM     14  C   UNL     1      -0.240   3.717  -0.239  1.00  0.00     0.047 A 
ATOM     15  C   UNL     1       0.974   1.645  -0.230  1.00  0.00     0.047 A 
ATOM     16  C   UNL     1      -1.428   3.019  -0.138  1.00  0.00     0.011 A 
ATOM     17  C   UNL     1      -0.217   0.951  -0.130  1.00  0.00     0.011 A 
ATOM     18  C   UNL     1      -1.417   1.637  -0.089  1.00  0.00    -0.005 A 
BRANCH  18  19
ATOM     19  C   UNL     1      -2.714   0.878   0.014  1.00  0.00     0.209 C 
ATOM     20  N   UNL     1      -2.447  -0.425   0.613  1.00  0.00    -0.328 N 
ATOM     21  N   UNL     1      -3.671   1.683   0.779  1.00  0.00    -0.345 N 
ATOM     22  C   UNL     1      -2.352  -0.571   1.962  1.00  0.00     0.258 C 
ATOM     23  H   UNL     1      -2.329  -1.248   0.005  1.00  0.00     0.166 HD
ATOM     24  C   UNL     1      -3.348   1.710   2.116  1.00  0.00     0.144 A 
ATOM     25  H   UNL     1      -4.482   2.167   0.367  1.00  0.00     0.164 HD
ATOM     26  C   UNL     1      -2.702   0.628   2.737  1.00  0.00     0.102 A 
ATOM     27  O   UNL     1      -2.005  -1.612   2.486  1.00  0.00    -0.269 OA
ATOM     28  N   UNL     1      -3.534   2.642   3.059  1.00  0.00    -0.217 N 
ATOM     29  C   UNL     1      -2.517   0.962   4.081  1.00  0.00     0.151 A 
ATOM     30  N   UNL     1      -3.013   2.159   4.269  1.00  0.00    -0.174 NA
BRANCH  28  31
ATOM     31  C   UNL     1      -4.147   3.888   2.869  1.00  0.00     0.067 A 
ATOM     32  C   UNL     1      -3.620   5.021   3.474  1.00  0.00     0.028 A 
ATOM     33  C   UNL     1      -5.279   3.993   2.072  1.00  0.00     0.028 A 
ATOM     34  C   UNL     1      -4.225   6.248   3.285  1.00  0.00     0.002 A 
ATOM     35  C   UNL     1      -5.882   5.222   1.890  1.00  0.00     0.002 A 
ATOM     36  C   UNL     1      -5.355   6.348   2.494  1.00  0.00     0.000 A 
ENDBRANCH  28  31
ENDBRANCH  18  19
ENDBRANCH  12  13
ENDBRANCH   1  12
TORSDOF 7
