REMARK SMILES O=c1c(-c2cccc3cnccc23)cc2c(n1CC1CC1)CC[N@@H+](Cc1ccc(O)cc1)C2
REMARK SMILES IDX 3 1 14 2 15 3 16 4 17 5 2 6 1 7 22 8 23 9 33 10 24 11 4 13
REMARK SMILES IDX 6 14 5 15 7 16 8 17 13 18 9 19 12 20 10 21 11 22 18 23 19 24
REMARK SMILES IDX 21 25 20 26 25 27 26 28 32 29 27 30 31 31 28 32 29 33 30 34
REMARK H PARENT 24 12 30 35
REMARK Flexibility Score: inf
ROOT
ATOM      1  C   UNL     1       1.216  -0.671  -0.018  1.00  0.00     0.048 A 
ATOM      2  C   UNL     1       0.002  -0.004   0.002  1.00  0.00     0.026 A 
ATOM      3  C   UNL     1      -0.017   1.400   0.010  1.00  0.00     0.027 A 
ATOM      4  C   UNL     1       1.146   2.089   0.002  1.00  0.00     0.036 A 
ATOM      5  N   UNL     1       2.342   1.433  -0.023  1.00  0.00    -0.311 N 
ATOM      6  C   UNL     1       2.410   0.092  -0.032  1.00  0.00     0.258 A 
ATOM      7  O   UNL     1       3.494  -0.467  -0.052  1.00  0.00    -0.269 OA
ATOM      8  C   UNL     1       1.174   3.597   0.030  1.00  0.00     0.116 C 
ATOM      9  C   UNL     1      -0.192   4.156  -0.367  1.00  0.00     0.269 C 
ATOM     10  C   UNL     1      -1.358   2.086   0.019  1.00  0.00     0.301 C 
ATOM     11  N   UNL     1      -1.212   3.481   0.462  1.00  0.00    -0.327 N 
ATOM     12  H   UNL     1      -0.912   3.495   1.448  1.00  0.00     0.348 HD
ENDROOT
BRANCH   1  13
ATOM     13  C   UNL     1       1.264  -2.149  -0.025  1.00  0.00    -0.005 A 
ATOM     14  C   UNL     1       1.627  -4.225  -1.199  1.00  0.00     0.001 A 
ATOM     15  C   UNL     1       1.580  -2.836  -1.187  1.00  0.00     0.009 A 
ATOM     16  C   UNL     1       1.366  -4.952  -0.076  1.00  0.00     0.010 A 
ATOM     17  C   UNL     1       1.042  -4.297   1.123  1.00  0.00     0.001 A 
ATOM     18  C   UNL     1       0.995  -2.880   1.154  1.00  0.00    -0.007 A 
ATOM     19  C   UNL     1       0.766  -5.004   2.305  1.00  0.00     0.119 A 
ATOM     20  C   UNL     1       0.674  -2.251   2.367  1.00  0.00     0.029 A 
ATOM     21  N   UNL     1       0.484  -4.349   3.408  1.00  0.00    -0.264 NA
ATOM     22  C   UNL     1       0.428  -3.026   3.461  1.00  0.00     0.111 A 
ENDBRANCH   1  13
BRANCH   5  23
ATOM     23  C   UNL     1       3.583   2.212  -0.042  1.00  0.00     0.129 C 
BRANCH  23  24
ATOM     24  C   UNL     1       3.988   2.491  -1.490  1.00  0.00     0.009 C 
ATOM     25  C   UNL     1       5.202   3.393  -1.723  1.00  0.00     0.006 C 
ATOM     26  C   UNL     1       5.305   1.889  -1.984  1.00  0.00     0.006 C 
ENDBRANCH  23  24
ENDBRANCH   5  23
BRANCH  11  27
ATOM     27  C   UNL     1      -2.507   4.188   0.351  1.00  0.00     0.299 C 
BRANCH  27  28
ATOM     28  C   UNL     1      -3.462   3.624   1.371  1.00  0.00     0.006 A 
ATOM     29  C   UNL     1      -3.516   4.168   2.642  1.00  0.00     0.013 A 
ATOM     30  C   UNL     1      -4.287   2.568   1.034  1.00  0.00     0.013 A 
ATOM     31  C   UNL     1      -4.391   3.653   3.578  1.00  0.00     0.046 A 
ATOM     32  C   UNL     1      -5.160   2.045   1.969  1.00  0.00     0.046 A 
ATOM     33  C   UNL     1      -5.216   2.589   3.244  1.00  0.00     0.115 A 
BRANCH  33  34
ATOM     34  O   UNL     1      -6.077   2.080   4.164  1.00  0.00    -0.508 OA
ATOM     35  H   UNL     1      -5.848   1.119   4.223  1.00  0.00     0.293 HD
ENDBRANCH  33  34
ENDBRANCH  27  28
ENDBRANCH  11  27
TORSDOF 6
