REMARK SMILES C[NH+]1C(C)(C)CC(NC(=O)c2ccc(-c3cc(-c4cccc5c4OCCO5)n[nH]3)cc2)CC1(C)C
REMARK SMILES IDX 11 1 12 2 13 3 14 4 30 5 31 6 9 7 8 8 10 10 7 11 34 12 33 13
REMARK SMILES IDX 2 14 32 15 35 16 3 17 1 18 6 20 4 21 5 22 15 23 29 24 16 25
REMARK SMILES IDX 28 26 17 28 18 29 23 30 19 31 22 32 24 33 20 34 21 35 27 36
REMARK SMILES IDX 25 37 26 38
REMARK H PARENT 8 9 2 19 29 27
REMARK Flexibility Score: inf
ROOT
ATOM      1  C   UNL     1       0.622   1.192   4.812  1.00  0.00     0.039 A 
ATOM      2  C   UNL     1       1.374   0.018   4.715  1.00  0.00     0.014 A 
ATOM      3  C   UNL     1       2.038  -0.463   5.814  1.00  0.00     0.011 A 
ATOM      4  C   UNL     1       1.953   0.214   7.033  1.00  0.00    -0.000 A 
ATOM      5  C   UNL     1       1.198   1.385   7.131  1.00  0.00     0.011 A 
ATOM      6  C   UNL     1       0.538   1.869   6.032  1.00  0.00     0.014 A 
ENDROOT
BRANCH   1   7
ATOM      7  C   UNL     1      -0.089   1.714   3.627  1.00  0.00     0.251 C 
ATOM      8  N   UNL     1      -0.009   1.061   2.451  1.00  0.00    -0.349 N 
ATOM      9  H   UNL     1       0.549   0.198   2.379  1.00  0.00     0.164 HD
ATOM     10  O   UNL     1      -0.748   2.732   3.713  1.00  0.00    -0.269 OA
BRANCH   8  11
ATOM     11  C   UNL     1      -0.716   1.579   1.273  1.00  0.00     0.094 C 
ATOM     12  C   UNL     1      -0.431   3.081  -1.441  1.00  0.00     0.079 C 
ATOM     13  C   UNL     1      -0.741   1.593  -1.235  1.00  0.00     0.094 C 
ATOM     14  N   UNL     1      -2.169   1.358  -1.189  1.00  0.00    -0.328 N 
ATOM     15  C   UNL     1      -0.013   1.088   0.008  1.00  0.00     0.093 C 
ATOM     16  C   UNL     1      -0.166   0.834  -2.452  1.00  0.00     0.079 C 
ATOM     17  C   UNL     1      -2.902   1.554   0.044  1.00  0.00     0.094 C 
ATOM     18  C   UNL     1      -2.864   1.940  -2.345  1.00  0.00     0.333 C 
ATOM     19  H   UNL     1      -2.179   0.330  -1.238  1.00  0.00     0.348 HD
ATOM     20  C   UNL     1      -2.148   1.046   1.271  1.00  0.00     0.093 C 
ATOM     21  C   UNL     1      -3.269   3.029   0.243  1.00  0.00     0.079 C 
ATOM     22  C   UNL     1      -4.225   0.762  -0.050  1.00  0.00     0.079 C 
ENDBRANCH   8  11
ENDBRANCH   1   7
BRANCH   4  23
ATOM     23  C   UNL     1       2.664  -0.308   8.219  1.00  0.00     0.066 A 
ATOM     24  N   UNL     1       2.675   0.250   9.464  1.00  0.00    -0.277 N 
ATOM     25  C   UNL     1       3.435  -1.434   8.267  1.00  0.00     0.059 A 
ATOM     26  N   UNL     1       3.462  -0.559  10.293  1.00  0.00    -0.175 NA
ATOM     27  H   UNL     1       2.190   1.114   9.745  1.00  0.00     0.190 HD
ATOM     28  C   UNL     1       3.921  -1.566   9.578  1.00  0.00     0.097 A 
BRANCH  28  29
ATOM     29  C   UNL     1       4.801  -2.653  10.074  1.00  0.00     0.048 A 
ATOM     30  C   UNL     1       5.215  -2.666  11.408  1.00  0.00     0.170 A 
ATOM     31  C   UNL     1       5.212  -3.667   9.211  1.00  0.00     0.014 A 
ATOM     32  C   UNL     1       6.035  -3.689  11.865  1.00  0.00     0.162 A 
ATOM     33  O   UNL     1       4.811  -1.671  12.243  1.00  0.00    -0.485 OA
ATOM     34  C   UNL     1       6.033  -4.675   9.673  1.00  0.00     0.005 A 
ATOM     35  C   UNL     1       6.443  -4.689  10.994  1.00  0.00     0.050 A 
ATOM     36  O   UNL     1       6.445  -3.726  13.162  1.00  0.00    -0.486 OA
ATOM     37  C   UNL     1       4.936  -1.917  13.647  1.00  0.00     0.271 C 
ATOM     38  C   UNL     1       6.328  -2.509  13.909  1.00  0.00     0.271 C 
ENDBRANCH  28  29
ENDBRANCH   4  23
TORSDOF 4
