REMARK SMILES COC(=O)c1cc(C(C)C)sc1NC(=O)/C(C#N)=C/c1c[nH]c2ccccc12
REMARK SMILES IDX 7 1 6 2 5 3 12 4 11 5 8 6 9 7 10 8 13 9 14 10 15 12 16 13
REMARK SMILES IDX 19 14 17 15 18 16 20 17 28 18 21 19 23 20 27 21 22 22 24 23
REMARK SMILES IDX 26 24 25 26 3 27 4 28 2 29 1 30
REMARK H PARENT 13 11 22 25
REMARK Flexibility Score: inf
ROOT
ATOM      1  C   UNL     1      -1.502   4.057   5.055  1.00  0.00     0.010 A 
ATOM      2  C   UNL     1      -0.877   3.867   3.880  1.00  0.00     0.033 A 
ATOM      3  C   UNL     1       0.193   2.898   3.850  1.00  0.00     0.095 A 
ATOM      4  C   UNL     1       0.476   2.244   5.045  1.00  0.00     0.110 A 
ATOM      5  S   UNL     1      -0.663   2.933   6.152  1.00  0.00    -0.122 S 
ENDROOT
BRANCH   1   6
ATOM      6  C   UNL     1      -2.639   4.995   5.368  1.00  0.00     0.023 C 
ATOM      7  C   UNL     1      -3.841   4.190   5.869  1.00  0.00     0.013 C 
ATOM      8  C   UNL     1      -2.202   5.984   6.451  1.00  0.00     0.013 C 
ENDBRANCH   1   6
BRANCH   4   9
ATOM      9  N   UNL     1       1.437   1.277   5.290  1.00  0.00    -0.312 N 
ATOM     10  C   UNL     1       1.565   0.752   6.524  1.00  0.00     0.266 C 
ATOM     11  H   UNL     1       2.053   0.959   4.528  1.00  0.00     0.171 HD
ATOM     12  O   UNL     1       0.837   1.128   7.424  1.00  0.00    -0.268 OA
BRANCH  10  13
ATOM     13  C   UNL     1       2.583  -0.273   6.784  1.00  0.00     0.118 C 
ATOM     14  C   UNL     1       2.715  -0.812   8.052  1.00  0.00     0.035 C 
BRANCH  13  15
ATOM     15  C   UNL     1       3.440  -0.715   5.725  1.00  0.00     0.105 C 
ATOM     16  N   UNL     1       4.120  -1.066   4.885  1.00  0.00    -0.192 NA
ENDBRANCH  13  15
BRANCH  14  17
ATOM     17  C   UNL     1       3.787  -1.686   8.340  1.00  0.00     0.001 A 
ATOM     18  C   UNL     1       3.891  -2.617   9.482  1.00  0.00     0.007 A 
ATOM     19  C   UNL     1       4.948  -1.846   7.607  1.00  0.00     0.091 A 
ATOM     20  C   UNL     1       5.129  -3.263   9.338  1.00  0.00     0.046 A 
ATOM     21  C   UNL     1       3.061  -2.926  10.555  1.00  0.00     0.011 A 
ATOM     22  N   UNL     1       5.732  -2.767   8.200  1.00  0.00    -0.361 N 
ATOM     23  C   UNL     1       5.514  -4.213  10.278  1.00  0.00     0.027 A 
ATOM     24  C   UNL     1       3.460  -3.870  11.476  1.00  0.00     0.001 A 
ATOM     25  H   UNL     1       6.656  -3.060   7.852  1.00  0.00     0.166 HD
ATOM     26  C   UNL     1       4.682  -4.510  11.337  1.00  0.00     0.002 A 
ENDBRANCH  14  17
ENDBRANCH  10  13
ENDBRANCH   4   9
BRANCH   3  27
ATOM     27  C   UNL     1       0.940   2.615   2.623  1.00  0.00     0.340 C 
ATOM     28  O   UNL     1       1.836   1.792   2.633  1.00  0.00    -0.246 OA
BRANCH  27  29
ATOM     29  O   UNL     1       0.634   3.265   1.482  1.00  0.00    -0.465 OA
ATOM     30  C   UNL     1       1.415   2.933   0.304  1.00  0.00     0.282 C 
ENDBRANCH  27  29
ENDBRANCH   3  27
TORSDOF 7
