REMARK SMILES Cn1nc(-c2ccc3ccccc3c2)cc1[C@H]1C[N@@H+]2CC[C@H]1C[C@@H]2CNC(=O)Nc1cccc(C#N)c1
REMARK SMILES IDX 25 1 24 2 17 3 22 4 18 5 21 6 23 7 19 8 20 9 16 11 1 12 2 13
REMARK SMILES IDX 3 14 4 15 15 16 5 17 14 18 6 19 13 20 7 21 8 22 12 23 9 24
REMARK SMILES IDX 11 25 10 26 26 27 27 28 28 30 29 31 30 33 37 34 31 35 34 36
REMARK SMILES IDX 32 37 33 38 35 39 36 40
REMARK H PARENT 19 10 26 29 29 32
REMARK Flexibility Score: inf
ROOT
ATOM      1  C   UNL     1      -2.166   4.409   0.842  1.00  0.00     0.182 C 
ENDROOT
BRANCH   1   2
ATOM      2  C   UNL     1      -1.103   3.403   0.395  1.00  0.00     0.203 C 
ATOM      3  C   UNL     1      -2.657   0.962   0.523  1.00  0.00     0.096 C 
ATOM      4  C   UNL     1      -1.194   0.980   0.981  1.00  0.00     0.015 C 
ATOM      5  C   UNL     1      -2.846   2.026  -0.570  1.00  0.00     0.272 C 
ATOM      6  C   UNL     1      -0.298   0.693  -0.231  1.00  0.00     0.066 C 
ATOM      7  C   UNL     1      -0.866   2.381   1.511  1.00  0.00     0.071 C 
ATOM      8  N   UNL     1      -1.571   2.726  -0.833  1.00  0.00    -0.330 N 
ATOM      9  C   UNL     1      -0.551   1.762  -1.299  1.00  0.00     0.262 C 
ATOM     10  H   UNL     1      -1.722   3.432  -1.568  1.00  0.00     0.348 HD
BRANCH   3  11
ATOM     11  C   UNL     1      -3.556   1.270   1.692  1.00  0.00     0.048 A 
ATOM     12  C   UNL     1      -2.633  -0.431   3.288  1.00  0.00     0.174 C 
ATOM     13  N   UNL     1      -3.535   0.654   2.894  1.00  0.00    -0.272 N 
ATOM     14  N   UNL     1      -4.525   1.233   3.699  1.00  0.00    -0.173 NA
ATOM     15  C   UNL     1      -5.124   2.172   2.998  1.00  0.00     0.093 A 
ATOM     16  C   UNL     1      -4.521   2.216   1.725  1.00  0.00     0.054 A 
BRANCH  15  17
ATOM     17  C   UNL     1      -6.235   3.037   3.467  1.00  0.00     0.003 A 
ATOM     18  C   UNL     1      -6.660   2.954   4.779  1.00  0.00     0.019 A 
ATOM     19  C   UNL     1      -6.849   3.928   2.572  1.00  0.00     0.011 A 
ATOM     20  C   UNL     1      -7.708   3.779   5.218  1.00  0.00    -0.018 A 
ATOM     21  C   UNL     1      -7.868   4.730   2.976  1.00  0.00     0.009 A 
ATOM     22  C   UNL     1      -8.321   4.675   4.306  1.00  0.00    -0.018 A 
ATOM     23  C   UNL     1      -8.165   3.728   6.547  1.00  0.00     0.009 A 
ATOM     24  C   UNL     1      -9.373   5.494   4.749  1.00  0.00     0.009 A 
ATOM     25  C   UNL     1      -9.187   4.536   6.940  1.00  0.00     0.001 A 
ATOM     26  C   UNL     1      -9.789   5.417   6.043  1.00  0.00     0.001 A 
ENDBRANCH  15  17
ENDBRANCH   3  11
ENDBRANCH   1   2
BRANCH   1  27
ATOM     27  N   UNL     1      -2.485   5.309  -0.270  1.00  0.00    -0.332 N 
ATOM     28  C   UNL     1      -3.401   6.283  -0.106  1.00  0.00     0.319 C 
ATOM     29  H   UNL     1      -2.009   5.196  -1.176  1.00  0.00     0.165 HD
ATOM     30  O   UNL     1      -3.963   6.417   0.964  1.00  0.00    -0.249 OA
ATOM     31  N   UNL     1      -3.694   7.111  -1.129  1.00  0.00    -0.308 N 
ATOM     32  H   UNL     1      -3.280   6.948  -2.058  1.00  0.00     0.171 HD
BRANCH  31  33
ATOM     33  C   UNL     1      -4.563   8.190  -0.929  1.00  0.00     0.044 A 
ATOM     34  C   UNL     1      -4.588   8.841   0.293  1.00  0.00     0.045 A 
ATOM     35  C   UNL     1      -5.395   8.612  -1.959  1.00  0.00     0.026 A 
ATOM     36  C   UNL     1      -5.455   9.917   0.488  1.00  0.00     0.054 A 
ATOM     37  C   UNL     1      -6.258   9.674  -1.766  1.00  0.00     0.004 A 
ATOM     38  C   UNL     1      -6.291  10.330  -0.552  1.00  0.00     0.019 A 
BRANCH  36  39
ATOM     39  C   UNL     1      -5.487  10.596   1.748  1.00  0.00     0.099 C 
ATOM     40  N   UNL     1      -5.512  11.135   2.748  1.00  0.00    -0.192 NA
ENDBRANCH  36  39
ENDBRANCH  31  33
ENDBRANCH   1  27
TORSDOF 6
