REMARK SMILES CCO[C@H]1[C@H](NC(=O)c2ccco2)c2ccccc2C12CC[NH+](Cc1c[nH]nc1-c1ccccc1)CC2
REMARK SMILES IDX 4 1 5 2 14 3 15 4 16 5 17 6 18 7 19 8 20 9 21 10 22 11 36 12
REMARK SMILES IDX 37 13 23 14 3 16 2 17 1 18 6 19 7 20 8 22 9 23 13 24 10 25
REMARK SMILES IDX 12 26 11 27 24 28 25 29 29 30 26 31 28 32 27 33 30 35 35 36
REMARK SMILES IDX 31 37 34 38 32 39 33 40
REMARK H PARENT 23 15 6 21 27 34
REMARK Flexibility Score: inf
ROOT
ATOM      1  C   UNL     1      -1.815   5.452   0.482  1.00  0.00     0.156 C 
ATOM      2  C   UNL     1      -0.343   5.330   0.032  1.00  0.00     0.143 C 
ATOM      3  C   UNL     1      -0.054   3.843   0.022  1.00  0.00    -0.019 A 
ATOM      4  C   UNL     1       1.153   3.165   0.008  1.00  0.00     0.006 A 
ATOM      5  C   UNL     1       1.175   1.784   0.000  1.00  0.00     0.000 A 
ATOM      6  C   UNL     1      -0.013   1.076   0.008  1.00  0.00     0.000 A 
ATOM      7  C   UNL     1      -1.218   1.750   0.017  1.00  0.00     0.005 A 
ATOM      8  C   UNL     1      -1.242   3.135   0.030  1.00  0.00    -0.033 A 
ATOM      9  C   UNL     1      -2.404   4.098   0.046  1.00  0.00     0.035 C 
ATOM     10  C   UNL     1      -3.015   4.221  -1.348  1.00  0.00     0.076 C 
ATOM     11  C   UNL     1      -4.204   5.183  -1.296  1.00  0.00     0.263 C 
ATOM     12  C   UNL     1      -4.637   4.624   1.024  1.00  0.00     0.263 C 
ATOM     13  C   UNL     1      -3.461   3.643   1.048  1.00  0.00     0.076 C 
ATOM     14  N   UNL     1      -5.204   4.657  -0.342  1.00  0.00    -0.331 N 
ATOM     15  H   UNL     1      -5.458   3.698  -0.620  1.00  0.00     0.348 HD
ENDROOT
BRANCH   1  16
ATOM     16  O   UNL     1      -1.902   5.617   1.899  1.00  0.00    -0.375 OA
BRANCH  16  17
ATOM     17  C   UNL     1      -1.907   6.981   2.326  1.00  0.00     0.157 C 
ATOM     18  C   UNL     1      -2.002   7.036   3.852  1.00  0.00     0.035 C 
ENDBRANCH  16  17
ENDBRANCH   1  16
BRANCH   2  19
ATOM     19  N   UNL     1      -0.173   5.889  -1.311  1.00  0.00    -0.340 N 
ATOM     20  C   UNL     1       1.043   6.298  -1.722  1.00  0.00     0.287 C 
ATOM     21  H   UNL     1      -0.984   5.970  -1.941  1.00  0.00     0.164 HD
ATOM     22  O   UNL     1       2.001   6.202  -0.978  1.00  0.00    -0.266 OA
BRANCH  20  23
ATOM     23  C   UNL     1       1.213   6.858  -3.067  1.00  0.00     0.191 A 
ATOM     24  O   UNL     1       0.240   7.013  -3.990  1.00  0.00    -0.459 OA
ATOM     25  C   UNL     1       2.384   7.307  -3.607  1.00  0.00     0.056 A 
ATOM     26  C   UNL     1       0.761   7.557  -5.097  1.00  0.00     0.196 A 
ATOM     27  C   UNL     1       2.085   7.752  -4.905  1.00  0.00     0.043 A 
ENDBRANCH  20  23
ENDBRANCH   2  19
BRANCH  14  28
ATOM     28  C   UNL     1      -6.416   5.502  -0.364  1.00  0.00     0.303 C 
BRANCH  28  29
ATOM     29  C   UNL     1      -7.092   5.345  -1.702  1.00  0.00     0.052 A 
ATOM     30  C   UNL     1      -7.906   4.266  -2.097  1.00  0.00     0.101 A 
ATOM     31  C   UNL     1      -7.021   6.210  -2.736  1.00  0.00     0.115 A 
ATOM     32  N   UNL     1      -8.310   4.494  -3.329  1.00  0.00    -0.175 NA
ATOM     33  N   UNL     1      -7.761   5.711  -3.749  1.00  0.00    -0.285 N 
ATOM     34  H   UNL     1      -7.897   6.150  -4.671  1.00  0.00     0.189 HD
BRANCH  30  35
ATOM     35  C   UNL     1      -8.251   3.082  -1.270  1.00  0.00     0.002 A 
ATOM     36  C   UNL     1      -9.508   2.493  -1.382  1.00  0.00     0.010 A 
ATOM     37  C   UNL     1      -7.316   2.553  -0.384  1.00  0.00     0.010 A 
ATOM     38  C   UNL     1      -9.824   1.393  -0.611  1.00  0.00     0.001 A 
ATOM     39  C   UNL     1      -7.643   1.456   0.387  1.00  0.00     0.001 A 
ATOM     40  C   UNL     1      -8.893   0.875   0.272  1.00  0.00     0.000 A 
ENDBRANCH  30  35
ENDBRANCH  28  29
ENDBRANCH  14  28
TORSDOF 7
