REMARK SMILES C[NH+](C)Cc1ccccc1-c1ccc(-c2c[nH]c3c(C(F)(F)F)nn(-c4ccc5onc(N)c5c4)c3c2=O)cc1
REMARK SMILES IDX 11 1 12 2 13 3 14 4 39 5 40 6 10 7 5 8 6 9 9 10 7 11 8 12
REMARK SMILES IDX 4 13 2 14 1 15 3 16 15 18 37 19 16 20 36 21 38 22 17 23
REMARK SMILES IDX 18 24 25 25 19 27 24 28 26 29 35 30 27 31 34 32 28 33 29 34
REMARK SMILES IDX 32 35 30 36 31 37 33 38 20 41 21 42 22 43 23 44
REMARK H PARENT 2 17 17 26 33 39 33 40
REMARK Flexibility Score: inf
ROOT
ATOM      1  C   UNL     1      -1.498   2.477   0.100  1.00  0.00    -0.018 A 
ATOM      2  C   UNL     1      -1.578   1.105  -0.140  1.00  0.00     0.009 A 
ATOM      3  C   UNL     1      -0.431   0.342  -0.166  1.00  0.00     0.009 A 
ATOM      4  C   UNL     1       0.811   0.943   0.039  1.00  0.00    -0.013 A 
ATOM      5  C   UNL     1       0.891   2.316   0.274  1.00  0.00     0.009 A 
ATOM      6  C   UNL     1      -0.256   3.078   0.305  1.00  0.00     0.009 A 
ENDROOT
BRANCH   1   7
ATOM      7  C   UNL     1      -2.733   3.297   0.133  1.00  0.00    -0.010 A 
ATOM      8  C   UNL     1      -3.592   3.311  -0.964  1.00  0.00     0.014 A 
ATOM      9  C   UNL     1      -4.743   4.073  -0.926  1.00  0.00     0.010 A 
ATOM     10  C   UNL     1      -3.036   4.061   1.258  1.00  0.00     0.009 A 
ATOM     11  C   UNL     1      -5.038   4.829   0.193  1.00  0.00     0.001 A 
ATOM     12  C   UNL     1      -4.186   4.823   1.283  1.00  0.00     0.001 A 
BRANCH   8  13
ATOM     13  C   UNL     1      -3.269   2.492  -2.187  1.00  0.00     0.299 C 
BRANCH  13  14
ATOM     14  N   UNL     1      -2.152   3.136  -2.909  1.00  0.00    -0.336 N 
ATOM     15  C   UNL     1      -1.593   2.204  -3.910  1.00  0.00     0.332 C 
ATOM     16  C   UNL     1      -2.625   4.368  -3.575  1.00  0.00     0.332 C 
ATOM     17  H   UNL     1      -1.415   3.383  -2.233  1.00  0.00     0.347 HD
ENDBRANCH  13  14
ENDBRANCH   8  13
ENDBRANCH   1   7
BRANCH   4  18
ATOM     18  C   UNL     1       2.045   0.124   0.006  1.00  0.00     0.047 A 
ATOM     19  C   UNL     1       3.188   0.531  -0.820  1.00  0.00     0.215 A 
ATOM     20  C   UNL     1       2.133  -1.023   0.739  1.00  0.00     0.095 A 
ATOM     21  C   UNL     1       4.344  -0.290  -0.807  1.00  0.00     0.139 A 
ATOM     22  O   UNL     1       3.146   1.549  -1.494  1.00  0.00    -0.287 OA
ATOM     23  N   UNL     1       3.245  -1.783   0.722  1.00  0.00    -0.357 N 
ATOM     24  C   UNL     1       4.349  -1.446  -0.030  1.00  0.00     0.101 A 
ATOM     25  N   UNL     1       5.560  -0.219  -1.433  1.00  0.00    -0.227 N 
ATOM     26  H   UNL     1       3.272  -2.642   1.290  1.00  0.00     0.166 HD
ATOM     27  C   UNL     1       5.599  -2.058  -0.211  1.00  0.00     0.191 A 
ATOM     28  N   UNL     1       6.309  -1.335  -1.037  1.00  0.00    -0.160 NA
BRANCH  25  29
ATOM     29  C   UNL     1       5.980   0.788  -2.313  1.00  0.00     0.067 A 
ATOM     30  C   UNL     1       7.304   1.189  -2.321  1.00  0.00     0.044 A 
ATOM     31  C   UNL     1       5.064   1.379  -3.181  1.00  0.00     0.032 A 
ATOM     32  C   UNL     1       7.715   2.191  -3.199  1.00  0.00     0.068 A 
ATOM     33  C   UNL     1       5.462   2.373  -4.046  1.00  0.00     0.053 A 
ATOM     34  C   UNL     1       6.788   2.788  -4.067  1.00  0.00     0.169 A 
ATOM     35  C   UNL     1       9.009   2.840  -3.463  1.00  0.00     0.174 A 
ATOM     36  O   UNL     1       7.455   3.711  -4.791  1.00  0.00    -0.354 OA
ATOM     37  N   UNL     1       8.814   3.724  -4.402  1.00  0.00    -0.061 NA
BRANCH  35  38
ATOM     38  N   UNL     1      10.213   2.563  -2.831  1.00  0.00    -0.380 N 
ATOM     39  H   UNL     1      10.172   1.829  -2.110  1.00  0.00     0.158 HD
ATOM     40  H   UNL     1      11.095   3.047  -3.052  1.00  0.00     0.158 HD
ENDBRANCH  35  38
ENDBRANCH  25  29
BRANCH  27  41
ATOM     41  C   UNL     1       6.050  -3.341   0.440  1.00  0.00     0.437 C 
ATOM     42  F   UNL     1       5.705  -4.424  -0.376  1.00  0.00    -0.164 F 
ATOM     43  F   UNL     1       7.437  -3.312   0.616  1.00  0.00    -0.164 F 
ATOM     44  F   UNL     1       5.424  -3.477   1.684  1.00  0.00    -0.164 F 
ENDBRANCH  27  41
ENDBRANCH   4  18
TORSDOF 7
