REMARK SMILES CCOc1ccc(C2=N[C@@H](c3ccccc3Cl)N[C@H](c3cccc(OCC)c3O)C2)cc1
REMARK SMILES IDX 8 1 9 2 10 3 19 4 30 5 18 6 7 8 4 9 32 10 5 11 31 12 6 13
REMARK SMILES IDX 3 14 2 15 1 16 20 17 28 18 21 19 24 20 22 21 23 22 29 23
REMARK SMILES IDX 25 25 26 26 27 27 11 28 16 29 12 30 15 31 17 32 13 33 14 34
REMARK H PARENT 18 7 29 24
REMARK Flexibility Score: inf
ROOT
ATOM      1  C   UNL     1      -0.079  -1.984  -1.487  1.00  0.00     0.046 C 
ATOM      2  N   UNL     1      -0.716  -2.607  -0.568  1.00  0.00    -0.265 NA
ATOM      3  C   UNL     1      -1.224  -1.979   0.645  1.00  0.00     0.205 C 
ATOM      4  C   UNL     1       0.002  -0.004   0.002  1.00  0.00     0.096 C 
ATOM      5  C   UNL     1       0.214  -0.510  -1.428  1.00  0.00     0.080 C 
ATOM      6  N   UNL     1      -1.294  -0.518   0.487  1.00  0.00    -0.284 NA
ATOM      7  H   UNL     1      -1.515  -0.085   1.395  1.00  0.00     0.125 HD
ENDROOT
BRANCH   1   8
ATOM      8  C   UNL     1       0.389  -2.747  -2.659  1.00  0.00    -0.004 A 
ATOM      9  C   UNL     1       1.268  -4.180  -4.861  1.00  0.00     0.119 A 
ATOM     10  C   UNL     1       1.522  -2.817  -4.776  1.00  0.00     0.047 A 
ATOM     11  C   UNL     1       0.574  -4.827  -3.845  1.00  0.00     0.047 A 
ATOM     12  C   UNL     1       1.083  -2.099  -3.685  1.00  0.00     0.014 A 
ATOM     13  C   UNL     1       0.135  -4.118  -2.749  1.00  0.00     0.014 A 
BRANCH   9  14
ATOM     14  O   UNL     1       1.699  -4.883  -5.940  1.00  0.00    -0.494 OA
BRANCH  14  15
ATOM     15  C   UNL     1       2.406  -4.156  -6.947  1.00  0.00     0.226 C 
ATOM     16  C   UNL     1       2.808  -5.108  -8.075  1.00  0.00     0.049 C 
ENDBRANCH  14  15
ENDBRANCH   9  14
ENDBRANCH   1   8
BRANCH   4  17
ATOM     17  C   UNL     1      -0.018   1.503   0.010  1.00  0.00     0.015 A 
ATOM     18  C   UNL     1       1.172   2.212   0.003  1.00  0.00     0.162 A 
ATOM     19  C   UNL     1      -1.225   2.178   0.020  1.00  0.00     0.009 A 
ATOM     20  C   UNL     1       1.149   3.603   0.010  1.00  0.00     0.161 A 
ATOM     21  C   UNL     1      -1.247   3.560   0.032  1.00  0.00     0.004 A 
ATOM     22  C   UNL     1      -0.063   4.273   0.025  1.00  0.00     0.050 A 
BRANCH  18  23
ATOM     23  O   UNL     1       2.359   1.549  -0.012  1.00  0.00    -0.504 OA
ATOM     24  H   UNL     1       2.316   0.966  -0.811  1.00  0.00     0.293 HD
ENDBRANCH  18  23
BRANCH  20  25
ATOM     25  O   UNL     1       2.315   4.304   0.003  1.00  0.00    -0.490 OA
BRANCH  25  26
ATOM     26  C   UNL     1       2.215   5.729   0.011  1.00  0.00     0.226 C 
ATOM     27  C   UNL     1       3.619   6.339   0.002  1.00  0.00     0.049 C 
ENDBRANCH  25  26
ENDBRANCH  20  25
ENDBRANCH   4  17
BRANCH   3  28
ATOM     28  C   UNL     1      -0.311  -2.312   1.797  1.00  0.00     0.009 A 
ATOM     29  C   UNL     1       0.324  -3.540   1.843  1.00  0.00     0.047 A 
ATOM     30  C   UNL     1      -0.103  -1.388   2.804  1.00  0.00     0.009 A 
ATOM     31  C   UNL     1       1.163  -3.845   2.901  1.00  0.00     0.021 A 
ATOM     32  Cl  UNL     1       0.068  -4.699   0.576  1.00  0.00    -0.084 Cl
ATOM     33  C   UNL     1       0.731  -1.695   3.863  1.00  0.00     0.001 A 
ATOM     34  C   UNL     1       1.366  -2.923   3.910  1.00  0.00     0.002 A 
ENDBRANCH   3  28
TORSDOF 8
