REMARK SMILES CC[NH+](CC)CCNC(=O)CNC(=O)[C@@H]1c2ccccc2C(=O)N(C2CCCCC2)[C@H]1c1ccc(OC)cc1
REMARK SMILES IDX 8 1 9 2 10 3 7 5 6 6 3 7 2 9 1 10 4 11 5 12 11 13 12 14
REMARK SMILES IDX 13 15 14 17 15 18 31 19 16 20 24 21 21 22 17 23 22 24 20 25
REMARK SMILES IDX 18 26 23 27 19 28 32 29 39 30 33 31 38 32 34 33 35 34 36 35
REMARK SMILES IDX 37 36 25 37 30 38 26 39 29 40 27 41 28 42
REMARK H PARENT 8 4 3 8 12 16
REMARK Flexibility Score: inf
ROOT
ATOM      1  N   UNL     1      -7.967   1.764   7.161  1.00  0.00    -0.349 N 
ATOM      2  C   UNL     1      -8.343   1.967   5.882  1.00  0.00     0.239 C 
ATOM      3  O   UNL     1      -9.381   1.492   5.473  1.00  0.00    -0.273 OA
ATOM      4  H   UNL     1      -7.085   2.167   7.508  1.00  0.00     0.163 HD
ENDROOT
BRANCH   1   5
ATOM      5  C   UNL     1      -8.813   0.970   8.055  1.00  0.00     0.177 C 
BRANCH   5   6
ATOM      6  C   UNL     1      -8.163   0.894   9.438  1.00  0.00     0.283 C 
BRANCH   6   7
ATOM      7  N   UNL     1      -9.038   0.109  10.334  1.00  0.00    -0.334 N 
ATOM      8  H   UNL     1      -9.992   0.494  10.291  1.00  0.00     0.348 HD
BRANCH   7   9
ATOM      9  C   UNL     1      -9.069  -1.303   9.899  1.00  0.00     0.258 C 
ATOM     10  C   UNL     1      -7.663  -1.905   9.925  1.00  0.00     0.071 C 
ENDBRANCH   7   9
BRANCH   7  11
ATOM     11  C   UNL     1      -8.546   0.198  11.725  1.00  0.00     0.258 C 
ATOM     12  C   UNL     1      -9.644  -0.300  12.667  1.00  0.00     0.071 C 
ENDBRANCH   7  11
ENDBRANCH   6   7
ENDBRANCH   5   6
ENDBRANCH   1   5
BRANCH   2  13
ATOM     13  C   UNL     1      -7.472   2.783   4.962  1.00  0.00     0.216 C 
BRANCH  13  14
ATOM     14  N   UNL     1      -8.095   2.856   3.638  1.00  0.00    -0.346 N 
ATOM     15  C   UNL     1      -7.492   3.539   2.646  1.00  0.00     0.230 C 
ATOM     16  H   UNL     1      -8.995   2.385   3.465  1.00  0.00     0.164 HD
ATOM     17  O   UNL     1      -6.432   4.094   2.849  1.00  0.00    -0.274 OA
BRANCH  15  18
ATOM     18  C   UNL     1      -8.132   3.614   1.284  1.00  0.00     0.136 C 
ATOM     19  C   UNL     1      -7.253   4.453   0.365  1.00  0.00     0.133 C 
ATOM     20  C   UNL     1      -8.287   2.224   0.728  1.00  0.00    -0.020 A 
ATOM     21  N   UNL     1      -6.009   3.756   0.046  1.00  0.00    -0.327 N 
ATOM     22  C   UNL     1      -7.231   1.644   0.022  1.00  0.00     0.044 A 
ATOM     23  C   UNL     1      -9.452   1.513   0.924  1.00  0.00     0.005 A 
ATOM     24  C   UNL     1      -5.997   2.430  -0.193  1.00  0.00     0.254 C 
ATOM     25  C   UNL     1      -7.340   0.337  -0.445  1.00  0.00     0.014 A 
ATOM     26  C   UNL     1      -9.563   0.220   0.442  1.00  0.00     0.000 A 
ATOM     27  O   UNL     1      -4.982   1.886  -0.581  1.00  0.00    -0.269 OA
ATOM     28  C   UNL     1      -8.509  -0.368  -0.236  1.00  0.00     0.001 A 
BRANCH  19  29
ATOM     29  C   UNL     1      -8.005   4.733  -0.911  1.00  0.00    -0.024 A 
ATOM     30  C   UNL     1      -8.654   5.943  -1.078  1.00  0.00     0.010 A 
ATOM     31  C   UNL     1      -8.038   3.784  -1.915  1.00  0.00     0.010 A 
ATOM     32  C   UNL     1      -9.343   6.202  -2.247  1.00  0.00     0.047 A 
ATOM     33  C   UNL     1      -8.731   4.036  -3.084  1.00  0.00     0.047 A 
ATOM     34  C   UNL     1      -9.383   5.249  -3.253  1.00  0.00     0.118 A 
BRANCH  34  35
ATOM     35  O   UNL     1     -10.060   5.502  -4.404  1.00  0.00    -0.497 OA
ATOM     36  C   UNL     1     -10.059   4.475  -5.397  1.00  0.00     0.278 C 
ENDBRANCH  34  35
ENDBRANCH  19  29
BRANCH  21  37
ATOM     37  C   UNL     1      -4.754   4.509  -0.009  1.00  0.00     0.086 C 
ATOM     38  C   UNL     1      -3.777   3.948   1.026  1.00  0.00     0.025 C 
ATOM     39  C   UNL     1      -4.144   4.383  -1.407  1.00  0.00     0.025 C 
ATOM     40  C   UNL     1      -2.466   4.735   0.969  1.00  0.00     0.002 C 
ATOM     41  C   UNL     1      -2.833   5.170  -1.464  1.00  0.00     0.002 C 
ATOM     42  C   UNL     1      -1.856   4.609  -0.429  1.00  0.00     0.000 C 
ENDBRANCH  21  37
ENDBRANCH  15  18
ENDBRANCH  13  14
ENDBRANCH   2  13
TORSDOF 11
