REMARK SMILES CCOc1cc([C@H]2c3c(-c4cc(C)cc(C)c4O)n[nH]c3C(=O)N2Cc2ccc(F)cc2)ccc1O
REMARK SMILES IDX 7 1 8 2 9 3 19 4 20 5 21 6 22 7 23 8 24 9 6 11 4 12 35 13
REMARK SMILES IDX 5 14 34 15 33 16 3 17 2 18 1 19 36 20 25 22 26 23 32 24
REMARK SMILES IDX 27 25 31 26 28 27 29 28 30 29 10 30 17 31 11 32 15 33 12 34
REMARK SMILES IDX 14 35 16 36 13 37 18 38
REMARK H PARENT 20 10 36 21 18 39
REMARK Flexibility Score: inf
ROOT
ATOM      1  C   UNL     1       3.923  -3.076  -0.297  1.00  0.00     0.151 C 
ATOM      2  C   UNL     1       2.531  -2.662   0.096  1.00  0.00     0.038 A 
ATOM      3  C   UNL     1       1.668  -1.621   0.455  1.00  0.00     0.102 A 
ATOM      4  N   UNL     1       0.477  -2.149   0.657  1.00  0.00    -0.174 NA
ATOM      5  N   UNL     1       0.503  -3.420   0.466  1.00  0.00    -0.272 N 
ATOM      6  C   UNL     1       1.764  -3.811   0.114  1.00  0.00     0.129 A 
ATOM      7  C   UNL     1       2.618  -4.947  -0.252  1.00  0.00     0.273 C 
ATOM      8  O   UNL     1       2.241  -6.101  -0.331  1.00  0.00    -0.267 OA
ATOM      9  N   UNL     1       3.873  -4.530  -0.498  1.00  0.00    -0.322 N 
ATOM     10  H   UNL     1      -0.305  -4.050   0.563  1.00  0.00     0.190 HD
ENDROOT
BRANCH   1  11
ATOM     11  C   UNL     1       4.327  -2.388  -1.576  1.00  0.00    -0.017 A 
ATOM     12  C   UNL     1       4.141  -2.152  -3.954  1.00  0.00     0.161 A 
ATOM     13  C   UNL     1       5.075  -1.120  -3.922  1.00  0.00     0.157 A 
ATOM     14  C   UNL     1       3.770  -2.783  -2.778  1.00  0.00     0.056 A 
ATOM     15  C   UNL     1       5.629  -0.729  -2.713  1.00  0.00     0.050 A 
ATOM     16  C   UNL     1       5.250  -1.360  -1.543  1.00  0.00     0.010 A 
BRANCH  12  17
ATOM     17  O   UNL     1       3.594  -2.539  -5.137  1.00  0.00    -0.490 OA
BRANCH  17  18
ATOM     18  C   UNL     1       2.552  -3.515  -5.082  1.00  0.00     0.226 C 
ATOM     19  C   UNL     1       1.985  -3.736  -6.485  1.00  0.00     0.049 C 
ENDBRANCH  17  18
ENDBRANCH  12  17
BRANCH  13  20
ATOM     20  O   UNL     1       5.442  -0.497  -5.073  1.00  0.00    -0.504 OA
ATOM     21  H   UNL     1       4.595  -0.166  -5.464  1.00  0.00     0.293 HD
ENDBRANCH  13  20
ENDBRANCH   1  11
BRANCH   9  22
ATOM     22  C   UNL     1       4.998  -5.382  -0.891  1.00  0.00     0.156 C 
BRANCH  22  23
ATOM     23  C   UNL     1       5.710  -5.874   0.342  1.00  0.00    -0.028 A 
ATOM     24  C   UNL     1       5.320  -7.060   0.938  1.00  0.00     0.008 A 
ATOM     25  C   UNL     1       6.755  -5.143   0.875  1.00  0.00     0.008 A 
ATOM     26  C   UNL     1       5.973  -7.513   2.069  1.00  0.00     0.039 A 
ATOM     27  C   UNL     1       7.406  -5.591   2.009  1.00  0.00     0.039 A 
ATOM     28  C   UNL     1       7.017  -6.779   2.606  1.00  0.00     0.123 A 
ATOM     29  F   UNL     1       7.655  -7.220   3.712  1.00  0.00    -0.207 F 
ENDBRANCH  22  23
ENDBRANCH   9  22
BRANCH   3  30
ATOM     30  C   UNL     1       2.025  -0.186   0.579  1.00  0.00     0.045 A 
ATOM     31  C   UNL     1       1.029   0.768   0.801  1.00  0.00     0.127 A 
ATOM     32  C   UNL     1       3.355   0.215   0.474  1.00  0.00     0.017 A 
ATOM     33  C   UNL     1       1.371   2.106   0.915  1.00  0.00    -0.008 A 
ATOM     34  C   UNL     1       3.682   1.551   0.590  1.00  0.00    -0.050 A 
ATOM     35  C   UNL     1       2.694   2.494   0.810  1.00  0.00     0.010 A 
ATOM     36  C   UNL     1       0.300   3.140   1.148  1.00  0.00     0.048 C 
ATOM     37  C   UNL     1       5.121   1.984   0.477  1.00  0.00     0.044 C 
BRANCH  31  38
ATOM     38  O   UNL     1      -0.271   0.386   0.904  1.00  0.00    -0.507 OA
ATOM     39  H   UNL     1      -0.282  -0.281   1.634  1.00  0.00     0.293 HD
ENDBRANCH  31  38
ENDBRANCH   3  30
TORSDOF 8
