REMARK SMILES O=C(NCCc1cn2ccccc2n1)c1ccc(-c2nc3scc(-c4ccccc4)c3c(=O)[nH]2)cc1
REMARK SMILES IDX 2 1 1 2 3 3 15 5 18 6 35 7 17 8 36 9 16 10 19 11 24 12 31 13
REMARK SMILES IDX 23 14 21 15 32 16 22 17 20 18 33 19 34 20 25 22 28 23 29 24
REMARK SMILES IDX 27 25 30 26 26 27 4 28 5 29 6 30 14 31 7 32 13 33 8 34 12 35
REMARK SMILES IDX 9 36 11 37 10 38
REMARK H PARENT 3 4 34 21
REMARK Flexibility Score: inf
ROOT
ATOM      1  C   UNL     1       2.255   9.646  -2.109  1.00  0.00     0.251 C 
ATOM      2  O   UNL     1       1.424   9.410  -2.965  1.00  0.00    -0.269 OA
ATOM      3  N   UNL     1       2.524   8.728  -1.160  1.00  0.00    -0.352 N 
ATOM      4  H   UNL     1       3.228   8.928  -0.435  1.00  0.00     0.163 HD
ENDROOT
BRANCH   1   5
ATOM      5  C   UNL     1       2.969  10.941  -2.109  1.00  0.00     0.039 A 
ATOM      6  C   UNL     1       4.310  13.369  -2.111  1.00  0.00     0.017 A 
ATOM      7  C   UNL     1       4.589  12.417  -1.126  1.00  0.00     0.013 A 
ATOM      8  C   UNL     1       3.356  13.097  -3.094  1.00  0.00     0.013 A 
ATOM      9  C   UNL     1       3.919  11.214  -1.123  1.00  0.00     0.014 A 
ATOM     10  C   UNL     1       2.690  11.892  -3.093  1.00  0.00     0.014 A 
BRANCH   6  11
ATOM     11  C   UNL     1       5.025  14.662  -2.111  1.00  0.00     0.141 A 
ATOM     12  C   UNL     1       6.943  18.392  -2.293  1.00  0.00     0.007 A 
ATOM     13  C   UNL     1       6.354  17.070  -2.117  1.00  0.00     0.084 A 
ATOM     14  C   UNL     1       6.524  19.161  -3.328  1.00  0.00     0.076 A 
ATOM     15  C   UNL     1       5.381  16.721  -3.071  1.00  0.00     0.131 A 
ATOM     16  C   UNL     1       6.628  16.085  -1.115  1.00  0.00     0.260 A 
ATOM     17  S   UNL     1       5.302  18.142  -4.131  1.00  0.00    -0.123 S 
ATOM     18  N   UNL     1       4.760  15.549  -3.046  1.00  0.00    -0.219 NA
ATOM     19  O   UNL     1       7.456  16.300  -0.247  1.00  0.00    -0.269 OA
ATOM     20  N   UNL     1       5.958  14.918  -1.144  1.00  0.00    -0.306 N 
ATOM     21  H   UNL     1       6.151  14.205  -0.426  1.00  0.00     0.171 HD
BRANCH  12  22
ATOM     22  C   UNL     1       7.981  18.886  -1.357  1.00  0.00    -0.017 A 
ATOM     23  C   UNL     1       9.919  19.809   0.392  1.00  0.00     0.000 A 
ATOM     24  C   UNL     1       8.740  19.281   0.887  1.00  0.00     0.001 A 
ATOM     25  C   UNL     1      10.133  19.877  -0.973  1.00  0.00     0.001 A 
ATOM     26  C   UNL     1       7.768  18.825   0.020  1.00  0.00     0.009 A 
ATOM     27  C   UNL     1       9.171  19.419  -1.849  1.00  0.00     0.009 A 
ENDBRANCH  12  22
ENDBRANCH   6  11
ENDBRANCH   1   5
BRANCH   3  28
ATOM     28  C   UNL     1       1.816   7.446  -1.159  1.00  0.00     0.122 C 
BRANCH  28  29
ATOM     29  C   UNL     1       2.304   6.594   0.014  1.00  0.00     0.079 C 
BRANCH  29  30
ATOM     30  C   UNL     1       1.576   5.274   0.014  1.00  0.00     0.061 A 
ATOM     31  N   UNL     1       0.250   5.117   0.026  1.00  0.00    -0.234 NA
ATOM     32  C   UNL     1       2.156   4.054   0.002  1.00  0.00     0.116 A 
ATOM     33  C   UNL     1      -0.034   3.822   0.022  1.00  0.00     0.136 A 
ATOM     34  N   UNL     1       1.148   3.128   0.007  1.00  0.00    -0.307 N 
ATOM     35  C   UNL     1      -1.255   3.119   0.031  1.00  0.00     0.048 A 
ATOM     36  C   UNL     1       1.149   1.763   0.001  1.00  0.00     0.093 A 
ATOM     37  C   UNL     1      -1.240   1.758   0.018  1.00  0.00     0.005 A 
ATOM     38  C   UNL     1      -0.013   1.076   0.008  1.00  0.00     0.018 A 
ENDBRANCH  29  30
ENDBRANCH  28  29
ENDBRANCH   3  28
TORSDOF 6
