REMARK SMILES CC(=O)O[C@@H]1CC[C@]2(C)C3=C(CC[C@H]2C1(C)C)[C@]1(C)CC[C@@H]([C@@H](C)CC[C@@H](O)C(C)(C)O)[C@]1(C)CC3
REMARK SMILES IDX 25 1 23 2 24 3 22 4 33 5 21 6 18 7 35 8 34 9 20 10 11 11
REMARK SMILES IDX 19 12 36 13 10 14 12 15 8 16 13 17 14 18 7 19 9 20 15 21
REMARK SMILES IDX 6 22 5 23 16 24 17 25 4 26 2 27 3 28 1 29 26 30 27 31 29 32
REMARK SMILES IDX 30 33 31 34 32 35 28 37
REMARK H PARENT 32 36 28 38
REMARK Flexibility Score: inf
ROOT
ATOM      1  C   UNL     1       1.493   5.780  -3.598  1.00  0.00     0.006 C 
ENDROOT
BRANCH   1   2
ATOM      2  C   UNL     1       1.514   4.549  -4.506  1.00  0.00    -0.010 C 
ATOM      3  C   UNL     1       1.186   4.967  -5.940  1.00  0.00     0.008 C 
BRANCH   2   4
ATOM      4  C   UNL     1       0.475   3.539  -4.019  1.00  0.00    -0.001 C 
ATOM      5  C   UNL     1       0.905   2.937  -2.659  1.00  0.00    -0.020 C 
ATOM      6  C   UNL     1      -0.882   4.225  -3.801  1.00  0.00     0.005 C 
ATOM      7  C   UNL     1      -0.051   3.522  -1.623  1.00  0.00    -0.006 C 
ATOM      8  C   UNL     1       0.732   1.422  -2.760  1.00  0.00     0.012 C 
ATOM      9  C   UNL     1       2.360   3.314  -2.347  1.00  0.00     0.012 C 
ATOM     10  C   UNL     1      -1.358   3.796  -2.398  1.00  0.00     0.012 C 
ATOM     11  C   UNL     1      -0.357   2.621  -0.450  1.00  0.00    -0.064 C 
ATOM     12  C   UNL     1       0.518   4.848  -1.101  1.00  0.00     0.017 C 
ATOM     13  C   UNL     1       0.992   0.789  -1.401  1.00  0.00     0.032 C 
ATOM     14  C   UNL     1       0.096   1.406  -0.352  1.00  0.00    -0.064 C 
ATOM     15  C   UNL     1      -1.243   3.259   0.602  1.00  0.00     0.032 C 
ATOM     16  C   UNL     1      -0.260   0.500   0.814  1.00  0.00    -0.008 C 
ATOM     17  C   UNL     1      -1.757   2.272   1.647  1.00  0.00     0.009 C 
ATOM     18  C   UNL     1      -0.594   1.354   2.019  1.00  0.00     0.009 C 
ATOM     19  C   UNL     1       0.908  -0.432   1.126  1.00  0.00     0.015 C 
ATOM     20  C   UNL     1      -1.450  -0.345   0.359  1.00  0.00     0.016 C 
ATOM     21  C   UNL     1      -0.799   0.611   3.319  1.00  0.00     0.005 C 
ATOM     22  C   UNL     1       0.558  -1.295   2.339  1.00  0.00     0.047 C 
ATOM     23  C   UNL     1       0.304  -0.422   3.560  1.00  0.00     0.182 C 
ATOM     24  C   UNL     1      -0.711   1.633   4.478  1.00  0.00     0.015 C 
ATOM     25  C   UNL     1      -2.171  -0.056   3.409  1.00  0.00     0.015 C 
BRANCH  23  26
ATOM     26  O   UNL     1       1.532   0.267   3.926  1.00  0.00    -0.462 OA
BRANCH  26  27
ATOM     27  C   UNL     1       2.377  -0.387   4.739  1.00  0.00     0.302 C 
ATOM     28  O   UNL     1       2.102  -1.496   5.131  1.00  0.00    -0.253 OA
ATOM     29  C   UNL     1       3.670   0.263   5.162  1.00  0.00     0.139 C 
ENDBRANCH  26  27
ENDBRANCH  23  26
ENDBRANCH   2   4
ENDBRANCH   1   2
BRANCH   1  30
ATOM     30  C   UNL     1       2.610   6.740  -4.014  1.00  0.00     0.035 C 
BRANCH  30  31
ATOM     31  C   UNL     1       2.589   7.971  -3.106  1.00  0.00     0.145 C 
BRANCH  31  32
ATOM     32  C   UNL     1       3.623   8.986  -3.599  1.00  0.00     0.085 C 
ATOM     33  C   UNL     1       3.690  10.161  -2.621  1.00  0.00     0.044 C 
ATOM     34  C   UNL     1       4.995   8.314  -3.684  1.00  0.00     0.044 C 
BRANCH  32  35
ATOM     35  O   UNL     1       3.245   9.462  -4.891  1.00  0.00    -0.388 OA
ATOM     36  H   UNL     1       2.357   9.897  -4.837  1.00  0.00     0.211 HD
ENDBRANCH  32  35
ENDBRANCH  31  32
BRANCH  31  37
ATOM     37  O   UNL     1       2.904   7.582  -1.768  1.00  0.00    -0.390 OA
ATOM     38  H   UNL     1       3.804   7.172  -1.745  1.00  0.00     0.211 HD
ENDBRANCH  31  37
ENDBRANCH  30  31
ENDBRANCH   1  30
TORSDOF 9
