REMARK SMILES CCCCNC(=S)NNC(=O)c1cccc(S(=O)(=O)N[C@@H](C)[C@]23C[C@H]4C[C@H](C[C@H](C4)C2)C3)c1
REMARK SMILES IDX 9 1 10 2 11 3 8 5 6 7 7 8 5 9 4 11 3 12 2 13 1 14 12 15
REMARK SMILES IDX 33 16 13 17 16 18 14 19 15 20 17 21 18 22 19 23 20 24 21 26
REMARK SMILES IDX 22 27 23 28 24 29 31 30 32 31 25 32 29 33 27 34 26 35 30 36
REMARK SMILES IDX 28 37
REMARK H PARENT 9 4 8 6 5 10 20 25
REMARK Flexibility Score: inf
ROOT
ATOM      1  N   UNL     1       8.316  -3.442   1.727  1.00  0.00    -0.264 N 
ATOM      2  C   UNL     1       7.258  -3.728   0.941  1.00  0.00     0.269 C 
ATOM      3  O   UNL     1       6.558  -4.689   1.192  1.00  0.00    -0.267 OA
ATOM      4  H   UNL     1       8.910  -2.628   1.514  1.00  0.00     0.191 HD
ENDROOT
BRANCH   1   5
ATOM      5  N   UNL     1       8.607  -4.252   2.832  1.00  0.00    -0.274 N 
ATOM      6  H   UNL     1       8.014  -5.067   3.044  1.00  0.00     0.190 HD
BRANCH   5   7
ATOM      7  C   UNL     1       9.665  -3.966   3.617  1.00  0.00     0.185 C 
ATOM      8  S   UNL     1      10.021  -4.957   4.967  1.00  0.00    -0.039 S 
BRANCH   7   9
ATOM      9  N   UNL     1      10.442  -2.901   3.339  1.00  0.00    -0.361 N 
ATOM     10  H   UNL     1      10.227  -2.305   2.526  1.00  0.00     0.162 HD
BRANCH   9  11
ATOM     11  C   UNL     1      11.591  -2.590   4.193  1.00  0.00     0.115 C 
BRANCH  11  12
ATOM     12  C   UNL     1      12.298  -1.341   3.661  1.00  0.00     0.021 C 
BRANCH  12  13
ATOM     13  C   UNL     1      13.498  -1.016   4.553  1.00  0.00    -0.002 C 
ATOM     14  C   UNL     1      14.205   0.232   4.021  1.00  0.00     0.004 C 
ENDBRANCH  12  13
ENDBRANCH  11  12
ENDBRANCH   9  11
ENDBRANCH   7   9
ENDBRANCH   5   7
ENDBRANCH   1   5
BRANCH   2  15
ATOM     15  C   UNL     1       6.951  -2.873  -0.225  1.00  0.00     0.042 A 
ATOM     16  C   UNL     1       5.857  -3.166  -1.040  1.00  0.00     0.035 A 
ATOM     17  C   UNL     1       7.754  -1.769  -0.516  1.00  0.00     0.014 A 
ATOM     18  C   UNL     1       5.575  -2.365  -2.127  1.00  0.00     0.083 A 
ATOM     19  C   UNL     1       7.462  -0.975  -1.605  1.00  0.00     0.002 A 
ATOM     20  C   UNL     1       6.379  -1.275  -2.413  1.00  0.00     0.022 A 
BRANCH  18  21
ATOM     21  S   UNL     1       4.195  -2.733  -3.157  1.00  0.00     0.240 S 
ATOM     22  O   UNL     1       3.928  -4.120  -2.999  1.00  0.00    -0.207 OA
ATOM     23  O   UNL     1       4.466  -2.150  -4.424  1.00  0.00    -0.207 OA
BRANCH  21  24
ATOM     24  N   UNL     1       2.890  -1.926  -2.534  1.00  0.00    -0.208 NA
ATOM     25  H   UNL     1       2.092  -2.454  -2.153  1.00  0.00     0.141 HD
BRANCH  24  26
ATOM     26  C   UNL     1       2.870  -0.461  -2.526  1.00  0.00     0.073 C 
ATOM     27  C   UNL     1       2.130   0.045  -3.766  1.00  0.00     0.026 C 
BRANCH  26  28
ATOM     28  C   UNL     1       2.154   0.032  -1.268  1.00  0.00    -0.013 C 
ATOM     29  C   UNL     1       2.133   1.562  -1.259  1.00  0.00     0.012 C 
ATOM     30  C   UNL     1       2.894  -0.475  -0.028  1.00  0.00     0.012 C 
ATOM     31  C   UNL     1       0.718  -0.497  -1.257  1.00  0.00     0.012 C 
ATOM     32  C   UNL     1       1.417   2.055  -0.000  1.00  0.00    -0.010 C 
ATOM     33  C   UNL     1       2.178   0.019   1.231  1.00  0.00    -0.010 C 
ATOM     34  C   UNL     1       0.002  -0.004   0.002  1.00  0.00    -0.010 C 
ATOM     35  C   UNL     1      -0.019   1.526   0.010  1.00  0.00     0.007 C 
ATOM     36  C   UNL     1       2.157   1.548   1.239  1.00  0.00     0.007 C 
ATOM     37  C   UNL     1       0.742  -0.511   1.242  1.00  0.00     0.007 C 
ENDBRANCH  26  28
ENDBRANCH  24  26
ENDBRANCH  21  24
ENDBRANCH  18  21
ENDBRANCH   2  15
TORSDOF 11
