REMARK SMILES O=C(NC1CCCC1)[C@@H](c1ccc(O)cc1)N(C(=O)c1ccc2c(c1)OCCO2)c1cccc(O)c1
REMARK SMILES IDX 9 1 17 2 30 3 32 4 33 5 31 6 34 7 36 8 35 9 18 11 19 12
REMARK SMILES IDX 20 13 25 14 21 15 24 16 22 17 23 18 26 19 29 20 27 21 28 22
REMARK SMILES IDX 10 23 16 24 11 25 15 26 12 27 13 28 14 29 2 31 1 32 3 33
REMARK SMILES IDX 4 35 8 36 5 37 7 38 6 39
REMARK H PARENT 35 10 14 30 3 34
REMARK Flexibility Score: inf
ROOT
ATOM      1  C   UNL     1       5.473  -2.650   0.106  1.00  0.00     0.210 C 
ENDROOT
BRANCH   1   2
ATOM      2  N   UNL     1       4.711  -1.588  -0.557  1.00  0.00    -0.292 N 
BRANCH   2   3
ATOM      3  C   UNL     1       3.537  -1.898  -1.250  1.00  0.00     0.049 A 
ATOM      4  C   UNL     1       2.446  -2.737  -3.216  1.00  0.00     0.006 A 
ATOM      5  C   UNL     1       1.215  -2.514  -2.630  1.00  0.00     0.046 A 
ATOM      6  C   UNL     1       3.606  -2.427  -2.533  1.00  0.00     0.026 A 
ATOM      7  C   UNL     1       1.140  -1.981  -1.351  1.00  0.00     0.117 A 
ATOM      8  C   UNL     1       2.301  -1.673  -0.660  1.00  0.00     0.072 A 
BRANCH   7   9
ATOM      9  O   UNL     1      -0.072  -1.762  -0.776  1.00  0.00    -0.508 OA
ATOM     10  H   UNL     1      -0.072  -0.800  -0.540  1.00  0.00     0.293 HD
ENDBRANCH   7   9
ENDBRANCH   2   3
BRANCH   2  11
ATOM     11  C   UNL     1       5.142  -0.312  -0.498  1.00  0.00     0.259 C 
ATOM     12  O   UNL     1       4.462   0.581  -0.965  1.00  0.00    -0.269 OA
BRANCH  11  13
ATOM     13  C   UNL     1       6.438   0.000   0.135  1.00  0.00     0.044 A 
ATOM     14  C   UNL     1       7.365   0.807  -0.529  1.00  0.00     0.064 A 
ATOM     15  C   UNL     1       6.742  -0.511   1.399  1.00  0.00     0.018 A 
ATOM     16  C   UNL     1       8.579   1.098   0.066  1.00  0.00     0.162 A 
ATOM     17  C   UNL     1       7.952  -0.216   1.987  1.00  0.00     0.051 A 
ATOM     18  C   UNL     1       8.874   0.588   1.327  1.00  0.00     0.161 A 
ATOM     19  O   UNL     1       9.475   1.881  -0.597  1.00  0.00    -0.486 OA
ATOM     20  O   UNL     1      10.059   0.872   1.931  1.00  0.00    -0.486 OA
ATOM     21  C   UNL     1      10.526   2.457   0.185  1.00  0.00     0.271 C 
ATOM     22  C   UNL     1      11.109   1.363   1.089  1.00  0.00     0.271 C 
ENDBRANCH  11  13
ENDBRANCH   2  11
ENDBRANCH   1   2
BRANCH   1  23
ATOM     23  C   UNL     1       5.996  -3.613  -0.929  1.00  0.00    -0.015 A 
ATOM     24  C   UNL     1       7.284  -3.474  -1.412  1.00  0.00     0.010 A 
ATOM     25  C   UNL     1       5.189  -4.637  -1.389  1.00  0.00     0.010 A 
ATOM     26  C   UNL     1       7.766  -4.356  -2.360  1.00  0.00     0.046 A 
ATOM     27  C   UNL     1       5.664  -5.518  -2.341  1.00  0.00     0.046 A 
ATOM     28  C   UNL     1       6.956  -5.381  -2.827  1.00  0.00     0.115 A 
BRANCH  28  29
ATOM     29  O   UNL     1       7.428  -6.250  -3.759  1.00  0.00    -0.508 OA
ATOM     30  H   UNL     1       6.784  -6.194  -4.509  1.00  0.00     0.293 HD
ENDBRANCH  28  29
ENDBRANCH   1  23
BRANCH   1  31
ATOM     31  C   UNL     1       4.577  -3.385   1.069  1.00  0.00     0.248 C 
ATOM     32  O   UNL     1       3.416  -3.055   1.190  1.00  0.00    -0.272 OA
ATOM     33  N   UNL     1       5.065  -4.410   1.796  1.00  0.00    -0.351 N 
ATOM     34  H   UNL     1       6.051  -4.690   1.693  1.00  0.00     0.163 HD
BRANCH  33  35
ATOM     35  C   UNL     1       4.194  -5.124   2.732  1.00  0.00     0.082 C 
ATOM     36  C   UNL     1       4.721  -6.552   2.957  1.00  0.00     0.025 C 
ATOM     37  C   UNL     1       4.211  -4.426   4.107  1.00  0.00     0.025 C 
ATOM     38  C   UNL     1       5.040  -6.672   4.462  1.00  0.00     0.002 C 
ATOM     39  C   UNL     1       4.151  -5.591   5.126  1.00  0.00     0.002 C 
ENDBRANCH  33  35
ENDBRANCH   1  31
TORSDOF 9
