REMARK SMILES COc1cc2c(cc1OC)CN(Cc1cs/c(=N\C(=O)c3ccc(Cl)cc3Cl)[nH]1)CC2
REMARK SMILES IDX 14 1 15 2 16 3 17 4 29 5 18 6 13 8 12 9 3 10 8 11 4 12 7 13
REMARK SMILES IDX 5 14 6 15 31 16 11 17 30 18 2 19 1 20 9 21 10 22 19 23 20 24
REMARK SMILES IDX 21 25 27 26 22 27 26 28 28 29 23 30 24 31 25 32
REMARK H PARENT 29 7
REMARK Flexibility Score: inf
ROOT
ATOM      1  C   UNL     1      -7.972  -2.231   1.737  1.00  0.00     0.041 A 
ATOM      2  C   UNL     1      -8.137  -2.140   3.079  1.00  0.00     0.091 A 
ATOM      3  S   UNL     1      -7.992  -3.858   3.548  1.00  0.00    -0.105 S 
ATOM      4  C   UNL     1      -7.734  -4.505   1.958  1.00  0.00     0.190 A 
ATOM      5  N   UNL     1      -7.779  -3.422   1.206  1.00  0.00    -0.333 N 
ATOM      6  N   UNL     1      -7.537  -5.826   1.575  1.00  0.00    -0.181 NA
ATOM      7  H   UNL     1      -7.660  -3.509   0.187  1.00  0.00     0.169 HD
ENDROOT
BRANCH   1   8
ATOM      8  C   UNL     1      -8.015  -0.999   0.870  1.00  0.00     0.139 C 
BRANCH   8   9
ATOM      9  N   UNL     1      -6.648  -0.509   0.647  1.00  0.00    -0.293 NA
ATOM     10  C   UNL     1      -1.976   1.163   1.348  1.00  0.00     0.161 A 
ATOM     11  C   UNL     1      -2.690   1.574   2.470  1.00  0.00     0.161 A 
ATOM     12  C   UNL     1      -2.591   0.366   0.399  1.00  0.00     0.054 A 
ATOM     13  C   UNL     1      -4.006   1.177   2.628  1.00  0.00     0.055 A 
ATOM     14  C   UNL     1      -3.909  -0.031   0.564  1.00  0.00    -0.038 A 
ATOM     15  C   UNL     1      -4.617   0.374   1.676  1.00  0.00    -0.027 A 
ATOM     16  C   UNL     1      -4.535  -0.899  -0.498  1.00  0.00     0.051 C 
ATOM     17  C   UNL     1      -6.050  -0.034   1.898  1.00  0.00     0.120 C 
ATOM     18  C   UNL     1      -5.806  -1.554   0.044  1.00  0.00     0.090 C 
BRANCH  10  19
ATOM     19  O   UNL     1      -0.682   1.547   1.184  1.00  0.00    -0.493 OA
ATOM     20  C   UNL     1      -0.013   1.086   0.008  1.00  0.00     0.278 C 
ENDBRANCH  10  19
BRANCH  11  21
ATOM     21  O   UNL     1      -2.097   2.363   3.406  1.00  0.00    -0.493 OA
ATOM     22  C   UNL     1      -2.892   2.745   4.530  1.00  0.00     0.278 C 
ENDBRANCH  11  21
ENDBRANCH   8   9
ENDBRANCH   1   8
BRANCH   6  23
ATOM     23  C   UNL     1      -7.530  -6.803   2.503  1.00  0.00     0.281 C 
ATOM     24  O   UNL     1      -7.696  -6.529   3.675  1.00  0.00    -0.267 OA
BRANCH  23  25
ATOM     25  C   UNL     1      -7.321  -8.207   2.095  1.00  0.00     0.061 A 
ATOM     26  C   UNL     1      -7.307  -9.222   3.056  1.00  0.00     0.055 A 
ATOM     27  C   UNL     1      -7.129  -8.525   0.749  1.00  0.00     0.017 A 
ATOM     28  C   UNL     1      -7.115 -10.533   2.667  1.00  0.00     0.041 A 
ATOM     29  Cl  UNL     1      -7.537  -8.836   4.733  1.00  0.00    -0.083 Cl
ATOM     30  C   UNL     1      -6.934  -9.837   0.375  1.00  0.00     0.021 A 
ATOM     31  C   UNL     1      -6.926 -10.841   1.331  1.00  0.00     0.042 A 
ATOM     32  Cl  UNL     1      -6.679 -12.490   0.850  1.00  0.00    -0.084 Cl
ENDBRANCH  23  25
ENDBRANCH   6  23
TORSDOF 6
