REMARK SMILES O=S(=O)(/N=C1\CCCCCN1)c1cccc(/N=C/c2cccc(O)c2O)c1
REMARK SMILES IDX 2 1 1 2 3 3 12 4 14 5 13 6 15 7 16 8 27 9 17 10 18 11 19 12
REMARK SMILES IDX 25 13 20 14 23 15 21 16 22 17 26 18 24 20 4 22 5 23 11 24
REMARK SMILES IDX 6 26 7 27 8 28 10 30 9 31
REMARK H PARENT 26 19 24 21 11 25
REMARK Flexibility Score: 90.00
ROOT
ATOM      1  S   UNL     1      -2.066   5.143  -5.256  1.00  0.00     0.284 S 
ATOM      2  O   UNL     1      -2.282   5.273  -6.655  1.00  0.00    -0.199 OA
ATOM      3  O   UNL     1      -3.131   4.956  -4.335  1.00  0.00    -0.199 OA
ENDROOT
BRANCH   1   4
ATOM      4  C   UNL     1      -0.968   3.781  -5.041  1.00  0.00     0.091 A 
ATOM      5  C   UNL     1       0.736   2.333  -5.912  1.00  0.00     0.004 A 
ATOM      6  C   UNL     1      -0.129   3.401  -6.073  1.00  0.00     0.022 A 
ATOM      7  C   UNL     1       0.772   1.644  -4.718  1.00  0.00     0.028 A 
ATOM      8  C   UNL     1      -0.077   2.019  -3.674  1.00  0.00     0.064 A 
ATOM      9  C   UNL     1      -0.948   3.098  -3.843  1.00  0.00     0.050 A 
BRANCH   8  10
ATOM     10  N   UNL     1      -0.051   1.335  -2.488  1.00  0.00    -0.256 NA
ATOM     11  C   UNL     1      -0.034   0.032  -2.487  1.00  0.00     0.123 C 
BRANCH  11  12
ATOM     12  C   UNL     1      -0.006  -0.702  -1.213  1.00  0.00     0.038 A 
ATOM     13  C   UNL     1       0.002  -0.004   0.002  1.00  0.00     0.166 A 
ATOM     14  C   UNL     1       0.018  -2.102  -1.208  1.00  0.00     0.014 A 
ATOM     15  C   UNL     1       0.023  -0.710   1.200  1.00  0.00     0.158 A 
ATOM     16  C   UNL     1       0.040  -2.785  -0.012  1.00  0.00     0.005 A 
ATOM     17  C   UNL     1       0.042  -2.094   1.189  1.00  0.00     0.050 A 
BRANCH  13  18
ATOM     18  O   UNL     1      -0.016   1.354   0.009  1.00  0.00    -0.504 OA
ATOM     19  H   UNL     1      -0.823   1.599  -0.509  1.00  0.00     0.293 HD
ENDBRANCH  13  18
BRANCH  15  20
ATOM     20  O   UNL     1       0.026  -0.039   2.384  1.00  0.00    -0.504 OA
ATOM     21  H   UNL     1       0.831  -0.364   2.859  1.00  0.00     0.293 HD
ENDBRANCH  15  20
ENDBRANCH  11  12
ENDBRANCH   8  10
ENDBRANCH   1   4
BRANCH   1  22
ATOM     22  N   UNL     1      -1.257   6.505  -4.774  1.00  0.00    -0.146 NA
ATOM     23  C   UNL     1      -1.840   7.658  -4.830  1.00  0.00     0.115 C 
ATOM     24  N   UNL     1      -1.198   8.743  -4.446  1.00  0.00    -0.373 N 
ATOM     25  H   UNL     1      -0.283   8.967  -4.863  1.00  0.00     0.161 HD
BRANCH  23  26
ATOM     26  C   UNL     1      -3.273   7.766  -5.347  1.00  0.00     0.076 C 
BRANCH  26  27
ATOM     27  C   UNL     1      -4.148   8.127  -4.158  1.00  0.00     0.008 C 
BRANCH  27  28
ATOM     28  C   UNL     1      -4.267   9.635  -3.927  1.00  0.00     0.002 CG0
ATOM     29  G   UNL     1      -2.934  10.371  -4.074  1.00  0.00     0.000 G0
ENDBRANCH  27  28
ENDBRANCH  26  27
ENDBRANCH  23  26
BRANCH  24  30
ATOM     30  C   UNL     1      -1.777   9.646  -3.423  1.00  0.00     0.114 C 
BRANCH  30  31
ATOM     31  C   UNL     1      -2.934  10.371  -4.074  1.00  0.00     0.021 CG0
ATOM     32  G   UNL     1      -4.267   9.635  -3.927  1.00  0.00     0.000 G0
ENDBRANCH  30  31
ENDBRANCH  24  30
ENDBRANCH   1  22
TORSDOF 6
