REMARK SMILES C[C@H]1[C@@H]2[C@@H](O)[C@H]([C@H](C)C(=O)NCc3cccs3)CC[C@@]2(C)CC[C@@H]1NC(=O)c1ccccc1
REMARK SMILES IDX 7 1 8 2 6 3 1 4 2 5 3 6 24 7 20 8 4 9 23 10 22 11 19 12
REMARK SMILES IDX 21 13 18 14 25 15 26 16 27 18 28 19 33 20 29 21 32 22 30 23
REMARK SMILES IDX 31 24 5 25 9 27 10 28 11 29 12 31 13 32 17 33 14 34 16 35
REMARK SMILES IDX 15 36
REMARK H PARENT 25 17 5 26 11 30
REMARK Flexibility Score: inf
ROOT
ATOM      1  C   UNL     1       4.601  12.197   1.589  1.00  0.00     0.081 C 
ATOM      2  C   UNL     1       3.395  12.574   0.725  1.00  0.00     0.018 C 
ENDROOT
BRANCH   1   3
ATOM      3  C   UNL     1       5.137  10.833   1.147  1.00  0.00     0.030 C 
ATOM      4  C   UNL     1       3.317   7.284   2.827  1.00  0.00     0.010 C 
ATOM      5  C   UNL     1       3.597   7.309   1.323  1.00  0.00     0.014 C 
ATOM      6  C   UNL     1       4.635   8.389   1.014  1.00  0.00     0.029 C 
ATOM      7  C   UNL     1       4.133   5.945   0.882  1.00  0.00     0.085 C 
ATOM      8  C   UNL     1       4.915   8.414  -0.489  1.00  0.00    -0.027 C 
ATOM      9  C   UNL     1       4.099   9.752   1.456  1.00  0.00     0.122 C 
ATOM     10  C   UNL     1       4.413   5.970  -0.622  1.00  0.00     0.026 C 
ATOM     11  C   UNL     1       5.451   7.050  -0.931  1.00  0.00     0.009 C 
ATOM     12  C   UNL     1       5.953   9.494  -0.798  1.00  0.00     0.007 C 
ATOM     13  C   UNL     1       3.619   8.720  -1.244  1.00  0.00     0.012 C 
ATOM     14  C   UNL     1       5.416  10.858  -0.357  1.00  0.00     0.007 C 
BRANCH   7  15
ATOM     15  N   UNL     1       3.139   4.910   1.177  1.00  0.00    -0.349 N 
ATOM     16  C   UNL     1       3.530   3.634   1.360  1.00  0.00     0.251 C 
ATOM     17  H   UNL     1       2.142   5.159   1.245  1.00  0.00     0.164 HD
ATOM     18  O   UNL     1       4.707   3.341   1.280  1.00  0.00    -0.269 OA
BRANCH  16  19
ATOM     19  C   UNL     1       2.526   2.589   1.658  1.00  0.00     0.039 A 
ATOM     20  C   UNL     1       1.174   2.922   1.751  1.00  0.00     0.014 A 
ATOM     21  C   UNL     1       2.928   1.266   1.848  1.00  0.00     0.014 A 
ATOM     22  C   UNL     1       0.243   1.943   2.030  1.00  0.00     0.001 A 
ATOM     23  C   UNL     1       1.986   0.296   2.126  1.00  0.00     0.001 A 
ATOM     24  C   UNL     1       0.647   0.632   2.211  1.00  0.00     0.000 A 
ENDBRANCH  16  19
ENDBRANCH   7  15
BRANCH   9  25
ATOM     25  O   UNL     1       3.838   9.730   2.861  1.00  0.00    -0.392 OA
ATOM     26  H   UNL     1       4.675   9.532   3.350  1.00  0.00     0.210 HD
ENDBRANCH   9  25
ENDBRANCH   1   3
BRANCH   1  27
ATOM     27  C   UNL     1       5.679  13.237   1.428  1.00  0.00     0.223 C 
ATOM     28  O   UNL     1       6.783  12.912   1.045  1.00  0.00    -0.275 OA
ATOM     29  N   UNL     1       5.417  14.528   1.710  1.00  0.00    -0.351 N 
ATOM     30  H   UNL     1       4.480  14.804   2.036  1.00  0.00     0.163 HD
BRANCH  29  31
ATOM     31  C   UNL     1       6.466  15.539   1.554  1.00  0.00     0.162 C 
BRANCH  31  32
ATOM     32  C   UNL     1       5.919  16.892   1.932  1.00  0.00     0.024 A 
ATOM     33  S   UNL     1       5.124  18.111   0.899  1.00  0.00    -0.147 S 
ATOM     34  C   UNL     1       5.910  17.501   3.143  1.00  0.00     0.017 A 
ATOM     35  C   UNL     1       4.824  19.347   2.153  1.00  0.00     0.065 A 
ATOM     36  C   UNL     1       5.348  18.759   3.256  1.00  0.00     0.012 A 
ENDBRANCH  31  32
ENDBRANCH  29  31
ENDBRANCH   1  27
TORSDOF 7
