REMARK SMILES CCOC(=O)c1c(-c2cccs2)csc1NC(=O)CSc1nnc(C2CCCCC2)n1N
REMARK SMILES IDX 16 1 17 2 18 3 15 5 6 6 7 7 14 8 13 9 4 10 5 11 3 12 2 13
REMARK SMILES IDX 1 14 8 15 12 16 9 17 11 18 10 19 19 20 20 21 21 22 31 23
REMARK SMILES IDX 22 24 24 25 23 26 32 27 25 30 30 31 26 32 29 33 27 34 28 35
REMARK H PARENT 16 4 32 28 32 29
REMARK Flexibility Score: inf
ROOT
ATOM      1  N   UNL     1      -3.447   7.515  -1.554  1.00  0.00    -0.316 N 
ATOM      2  C   UNL     1      -3.729   8.810  -1.310  1.00  0.00     0.235 C 
ATOM      3  O   UNL     1      -3.148   9.400  -0.423  1.00  0.00    -0.274 OA
ATOM      4  H   UNL     1      -3.940   7.014  -2.307  1.00  0.00     0.170 HD
ENDROOT
BRANCH   1   5
ATOM      5  C   UNL     1      -2.495   6.857  -0.793  1.00  0.00     0.110 A 
ATOM      6  C   UNL     1      -2.073   5.538  -0.895  1.00  0.00     0.103 A 
ATOM      7  C   UNL     1      -1.050   5.105   0.039  1.00  0.00     0.019 A 
ATOM      8  S   UNL     1      -1.546   7.484   0.512  1.00  0.00    -0.125 S 
ATOM      9  C   UNL     1      -0.606   6.031   0.929  1.00  0.00     0.077 A 
BRANCH   6  10
ATOM     10  C   UNL     1      -2.633   4.630  -1.895  1.00  0.00     0.341 C 
ATOM     11  O   UNL     1      -3.613   3.960  -1.629  1.00  0.00    -0.246 OA
BRANCH  10  12
ATOM     12  O   UNL     1      -2.062   4.534  -3.114  1.00  0.00    -0.462 OA
BRANCH  12  13
ATOM     13  C   UNL     1      -2.661   3.627  -4.042  1.00  0.00     0.230 C 
ATOM     14  C   UNL     1      -1.881   3.656  -5.358  1.00  0.00     0.049 C 
ENDBRANCH  12  13
ENDBRANCH  10  12
ENDBRANCH   6  10
BRANCH   7  15
ATOM     15  C   UNL     1      -0.523   3.725   0.027  1.00  0.00     0.036 A 
ATOM     16  S   UNL     1      -1.416   2.179   0.019  1.00  0.00    -0.144 S 
ATOM     17  C   UNL     1       0.778   3.298   0.012  1.00  0.00     0.020 A 
ATOM     18  C   UNL     1      -0.013   1.076   0.008  1.00  0.00     0.065 A 
ATOM     19  C   UNL     1       1.031   1.943   0.003  1.00  0.00     0.012 A 
ENDBRANCH   7  15
ENDBRANCH   1   5
BRANCH   2  20
ATOM     20  C   UNL     1      -4.765   9.526  -2.138  1.00  0.00     0.178 C 
BRANCH  20  21
ATOM     21  S   UNL     1      -4.914  11.238  -1.570  1.00  0.00    -0.074 SA
BRANCH  21  22
ATOM     22  C   UNL     1      -6.154  11.821  -2.678  1.00  0.00     0.210 A 
ATOM     23  N   UNL     1      -6.685  13.078  -2.713  1.00  0.00    -0.221 N 
ATOM     24  N   UNL     1      -6.747  11.126  -3.621  1.00  0.00    -0.121 NA
ATOM     25  C   UNL     1      -7.600  13.065  -3.729  1.00  0.00     0.155 A 
ATOM     26  N   UNL     1      -7.598  11.866  -4.238  1.00  0.00    -0.132 NA
BRANCH  23  27
ATOM     27  N   UNL     1      -6.366  14.131  -1.904  1.00  0.00    -0.336 N 
ATOM     28  H   UNL     1      -5.643  13.932  -1.198  1.00  0.00     0.178 HD
ATOM     29  H   UNL     1      -6.802  15.061  -1.979  1.00  0.00     0.178 HD
ENDBRANCH  23  27
BRANCH  25  30
ATOM     30  C   UNL     1      -8.458  14.222  -4.174  1.00  0.00     0.060 C 
ATOM     31  C   UNL     1      -8.162  14.542  -5.640  1.00  0.00     0.012 C 
ATOM     32  C   UNL     1      -9.934  13.851  -4.021  1.00  0.00     0.012 C 
ATOM     33  C   UNL     1      -9.032  15.717  -6.091  1.00  0.00     0.001 C 
ATOM     34  C   UNL     1     -10.804  15.026  -4.472  1.00  0.00     0.001 C 
ATOM     35  C   UNL     1     -10.508  15.346  -5.939  1.00  0.00     0.000 C 
ENDBRANCH  25  30
ENDBRANCH  21  22
ENDBRANCH  20  21
ENDBRANCH   2  20
TORSDOF 10
