REMARK SMILES NNC(=O)/C(=C/c1cc(-c2ccccc2)nn1-c1ccccc1)NC(=O)c1ccc(Cl)cc1Cl
REMARK SMILES IDX 6 1 5 2 7 3 9 4 16 5 8 6 17 7 10 8 13 9 14 10 12 11 15 12
REMARK SMILES IDX 11 13 18 14 23 15 19 16 22 17 20 18 21 19 3 20 4 21 2 22
REMARK SMILES IDX 1 24 24 27 25 28 26 30 27 31 33 32 28 33 32 34 34 35 29 36
REMARK SMILES IDX 30 37 31 38
REMARK H PARENT 2 23 1 25 1 26 24 29
REMARK Flexibility Score: inf
ROOT
ATOM      1  C   UNL     1      -5.194   1.307   0.766  1.00  0.00     0.060 C 
ATOM      2  C   UNL     1      -6.477   1.740   0.675  1.00  0.00     0.110 C 
ENDROOT
BRANCH   1   3
ATOM      3  C   UNL     1      -4.840  -0.035   0.303  1.00  0.00     0.070 A 
ATOM      4  C   UNL     1      -4.958  -2.136  -0.485  1.00  0.00     0.093 A 
ATOM      5  N   UNL     1      -3.686  -1.870  -0.264  1.00  0.00    -0.167 NA
ATOM      6  C   UNL     1      -5.717  -1.010  -0.136  1.00  0.00     0.059 A 
ATOM      7  N   UNL     1      -3.577  -0.565   0.229  1.00  0.00    -0.233 N 
BRANCH   4   8
ATOM      8  C   UNL     1      -5.498  -3.415  -1.011  1.00  0.00     0.002 A 
ATOM      9  C   UNL     1      -6.504  -5.801  -1.991  1.00  0.00     0.000 A 
ATOM     10  C   UNL     1      -7.365  -4.761  -1.690  1.00  0.00     0.001 A 
ATOM     11  C   UNL     1      -5.141  -5.652  -1.805  1.00  0.00     0.001 A 
ATOM     12  C   UNL     1      -6.870  -3.572  -1.195  1.00  0.00     0.010 A 
ATOM     13  C   UNL     1      -4.634  -4.465  -1.316  1.00  0.00     0.010 A 
ENDBRANCH   4   8
BRANCH   7  14
ATOM     14  C   UNL     1      -2.390   0.085   0.585  1.00  0.00     0.065 A 
ATOM     15  C   UNL     1      -1.410  -0.595   1.296  1.00  0.00     0.028 A 
ATOM     16  C   UNL     1      -2.186   1.411   0.222  1.00  0.00     0.028 A 
ATOM     17  C   UNL     1      -0.239   0.049   1.645  1.00  0.00     0.002 A 
ATOM     18  C   UNL     1      -1.015   2.050   0.578  1.00  0.00     0.002 A 
ATOM     19  C   UNL     1      -0.042   1.370   1.286  1.00  0.00     0.000 A 
ENDBRANCH   7  14
ENDBRANCH   1   3
BRANCH   2  20
ATOM     20  C   UNL     1      -6.861   3.026   1.270  1.00  0.00     0.281 C 
ATOM     21  O   UNL     1      -6.048   3.668   1.908  1.00  0.00    -0.266 OA
ATOM     22  N   UNL     1      -8.115   3.494   1.110  1.00  0.00    -0.289 N 
ATOM     23  H   UNL     1      -8.823   2.917   0.634  1.00  0.00     0.185 HD
BRANCH  22  24
ATOM     24  N   UNL     1      -8.446   4.733   1.580  1.00  0.00    -0.248 NA
ATOM     25  H   UNL     1      -7.738   5.309   2.057  1.00  0.00     0.143 HD
ATOM     26  H   UNL     1      -9.404   5.091   1.458  1.00  0.00     0.143 HD
ENDBRANCH  22  24
ENDBRANCH   2  20
BRANCH   2  27
ATOM     27  N   UNL     1      -7.432   0.962   0.013  1.00  0.00    -0.317 N 
ATOM     28  C   UNL     1      -8.532   0.543   0.670  1.00  0.00     0.257 C 
ATOM     29  H   UNL     1      -7.295   0.709  -0.976  1.00  0.00     0.170 HD
ATOM     30  O   UNL     1      -8.732   0.905   1.813  1.00  0.00    -0.269 OA
BRANCH  28  31
ATOM     31  C   UNL     1      -9.493  -0.356   0.001  1.00  0.00     0.058 A 
ATOM     32  C   UNL     1     -10.568  -0.892   0.716  1.00  0.00     0.055 A 
ATOM     33  C   UNL     1      -9.329  -0.680  -1.348  1.00  0.00     0.017 A 
ATOM     34  C   UNL     1     -11.460  -1.736   0.086  1.00  0.00     0.041 A 
ATOM     35  Cl  UNL     1     -10.780  -0.496   2.393  1.00  0.00    -0.083 Cl
ATOM     36  C   UNL     1     -10.227  -1.524  -1.965  1.00  0.00     0.021 A 
ATOM     37  C   UNL     1     -11.290  -2.053  -1.251  1.00  0.00     0.042 A 
ATOM     38  Cl  UNL     1     -12.416  -3.116  -2.037  1.00  0.00    -0.084 Cl
ENDBRANCH  28  31
ENDBRANCH   2  27
TORSDOF 7
