REMARK SMILES Cc1ccc(C[N@@H+]2CC[C@@H](CNC(=O)CCc3nnc4ccc(NCc5ccccc5)nn34)C2)cc1
REMARK SMILES IDX 15 1 13 2 12 3 14 5 11 6 10 7 7 8 8 9 34 10 9 12 6 13 5 14
REMARK SMILES IDX 1 15 2 16 36 17 3 18 35 19 4 20 16 21 17 22 33 23 18 24
REMARK SMILES IDX 20 25 32 26 19 27 21 28 23 29 22 30 24 31 25 33 26 34 31 35
REMARK SMILES IDX 27 36 30 37 28 38 29 39
REMARK H PARENT 12 4 7 11 24 32
REMARK Flexibility Score: inf
ROOT
ATOM      1  C   UNL     1       7.528  -1.189  -6.251  1.00  0.00     0.108 C 
ENDROOT
BRANCH   1   2
ATOM      2  C   UNL     1       7.034  -0.913  -7.648  1.00  0.00     0.220 C 
ATOM      3  N   UNL     1       7.381   0.229  -8.272  1.00  0.00    -0.356 N 
ATOM      4  H   UNL     1       7.985   0.914  -7.795  1.00  0.00     0.163 HD
ATOM      5  O   UNL     1       6.322  -1.719  -8.210  1.00  0.00    -0.275 OA
BRANCH   3   6
ATOM      6  C   UNL     1       6.900   0.498  -9.630  1.00  0.00     0.125 C 
BRANCH   6   7
ATOM      7  C   UNL     1       7.436   1.851 -10.102  1.00  0.00     0.069 C 
ATOM      8  N   UNL     1       6.189   3.288 -11.571  1.00  0.00    -0.331 N 
ATOM      9  C   UNL     1       6.550   4.085 -10.393  1.00  0.00     0.263 C 
ATOM     10  C   UNL     1       7.045   2.096 -11.572  1.00  0.00     0.268 C 
ATOM     11  H   UNL     1       5.194   3.023 -11.534  1.00  0.00     0.348 HD
ATOM     12  C   UNL     1       6.768   2.998  -9.310  1.00  0.00     0.072 C 
BRANCH   8  13
ATOM     13  C   UNL     1       6.398   4.076 -12.823  1.00  0.00     0.299 C 
BRANCH  13  14
ATOM     14  C   UNL     1       5.695   5.403 -12.705  1.00  0.00     0.006 A 
ATOM     15  C   UNL     1       3.700   9.166 -12.372  1.00  0.00     0.044 C 
ATOM     16  C   UNL     1       4.404   7.839 -12.490  1.00  0.00    -0.051 A 
ATOM     17  C   UNL     1       3.741   6.750 -13.024  1.00  0.00     0.004 A 
ATOM     18  C   UNL     1       5.713   7.710 -12.064  1.00  0.00     0.004 A 
ATOM     19  C   UNL     1       4.388   5.533 -13.136  1.00  0.00     0.010 A 
ATOM     20  C   UNL     1       6.358   6.493 -12.172  1.00  0.00     0.010 A 
ENDBRANCH  13  14
ENDBRANCH   8  13
ENDBRANCH   6   7
ENDBRANCH   3   6
ENDBRANCH   1   2
BRANCH   1  21
ATOM     21  C   UNL     1       6.993  -2.542  -5.779  1.00  0.00     0.089 C 
BRANCH  21  22
ATOM     22  C   UNL     1       7.488  -2.818  -4.382  1.00  0.00     0.155 A 
ATOM     23  N   UNL     1       6.867  -2.472  -3.234  1.00  0.00    -0.195 N 
ATOM     24  N   UNL     1       8.597  -3.438  -4.064  1.00  0.00    -0.133 NA
ATOM     25  C   UNL     1       7.672  -2.922  -2.217  1.00  0.00     0.178 A 
ATOM     26  N   UNL     1       5.676  -1.806  -2.942  1.00  0.00    -0.147 NA
ATOM     27  N   UNL     1       8.716  -3.505  -2.784  1.00  0.00    -0.129 NA
ATOM     28  C   UNL     1       7.283  -2.704  -0.882  1.00  0.00     0.055 A 
ATOM     29  C   UNL     1       5.314  -1.604  -1.696  1.00  0.00     0.147 A 
ATOM     30  C   UNL     1       6.120  -2.048  -0.629  1.00  0.00     0.052 A 
BRANCH  29  31
ATOM     31  N   UNL     1       4.123  -0.938  -1.426  1.00  0.00    -0.365 N 
ATOM     32  H   UNL     1       3.531  -0.606  -2.201  1.00  0.00     0.162 HD
BRANCH  31  33
ATOM     33  C   UNL     1       3.711  -0.707  -0.039  1.00  0.00     0.150 C 
BRANCH  33  34
ATOM     34  C   UNL     1       2.396   0.029  -0.022  1.00  0.00    -0.029 A 
ATOM     35  C   UNL     1       2.377   1.411  -0.014  1.00  0.00     0.005 A 
ATOM     36  C   UNL     1       1.208  -0.679  -0.014  1.00  0.00     0.005 A 
ATOM     37  C   UNL     1       1.171   2.086   0.002  1.00  0.00     0.000 A 
ATOM     38  C   UNL     1       0.002  -0.004   0.002  1.00  0.00     0.000 A 
ATOM     39  C   UNL     1      -0.017   1.378   0.010  1.00  0.00     0.000 A 
ENDBRANCH  33  34
ENDBRANCH  31  33
ENDBRANCH  29  31
ENDBRANCH  21  22
ENDBRANCH   1  21
TORSDOF 10
