REMARK SMILES CCn1c(CN2CCCCCC2=O)nnc1SCc1nc(N)c2c3c(sc2n1)CCCCC3
REMARK SMILES IDX 3 1 4 2 14 3 15 4 16 5 2 6 1 7 17 8 18 9 19 10 28 11 20 12
REMARK SMILES IDX 27 13 21 14 23 15 26 16 24 17 25 18 22 19 33 22 32 23 29 25
REMARK SMILES IDX 30 26 31 27 5 29 6 30 12 31 13 32 11 33 10 34 9 35 7 37 8 38
REMARK H PARENT 22 20 22 21
REMARK Flexibility Score: 170.00
ROOT
ATOM      1  N   UNL     1       3.763   5.061   0.172  1.00  0.00    -0.305 N 
ATOM      2  C   UNL     1       3.134   4.276   1.099  1.00  0.00     0.153 A 
ATOM      3  N   UNL     1       4.015   3.967   2.008  1.00  0.00    -0.133 NA
ATOM      4  N   UNL     1       5.152   4.491   1.717  1.00  0.00    -0.123 NA
ATOM      5  C   UNL     1       5.054   5.177   0.601  1.00  0.00     0.191 A 
ENDROOT
BRANCH   1   6
ATOM      6  C   UNL     1       3.175   5.653  -1.031  1.00  0.00     0.123 C 
ATOM      7  C   UNL     1       2.724   7.083  -0.727  1.00  0.00     0.028 C 
ENDBRANCH   1   6
BRANCH   5   8
ATOM      8  S   UNL     1       6.345   6.076  -0.192  1.00  0.00    -0.078 SA
BRANCH   8   9
ATOM      9  C   UNL     1       7.706   5.752   0.957  1.00  0.00     0.155 C 
BRANCH   9  10
ATOM     10  C   UNL     1       8.952   6.443   0.467  1.00  0.00     0.142 A 
ATOM     11  N   UNL     1       9.773   5.798  -0.340  1.00  0.00    -0.221 NA
ATOM     12  N   UNL     1       9.202   7.680   0.859  1.00  0.00    -0.215 NA
ATOM     13  C   UNL     1      10.866   6.386  -0.786  1.00  0.00     0.129 A 
ATOM     14  C   UNL     1      10.278   8.341   0.464  1.00  0.00     0.136 A 
ATOM     15  C   UNL     1      11.199   7.702  -0.412  1.00  0.00     0.057 A 
ATOM     16  S   UNL     1      12.200   5.914  -1.854  1.00  0.00    -0.120 S 
ATOM     17  C   UNL     1      12.447   8.234  -0.971  1.00  0.00    -0.021 A 
ATOM     18  C   UNL     1      13.139   7.418  -1.790  1.00  0.00     0.011 A 
BRANCH  14  19
ATOM     19  N   UNL     1      10.505   9.635   0.898  1.00  0.00    -0.383 N 
ATOM     20  H   UNL     1       9.830  10.085   1.532  1.00  0.00     0.158 HD
ATOM     21  H   UNL     1      11.344  10.146   0.588  1.00  0.00     0.158 HD
ENDBRANCH  14  19
BRANCH  17  22
ATOM     22  C   UNL     1      12.931   9.638  -0.621  1.00  0.00     0.037 C 
BRANCH  22  23
ATOM     23  C   UNL     1      13.813  10.181  -1.738  1.00  0.00     0.005 CG0
ATOM     24  G   UNL     1      15.274   9.809  -1.496  1.00  0.00     0.000 G0
ENDBRANCH  22  23
ENDBRANCH  17  22
BRANCH  18  25
ATOM     25  C   UNL     1      14.424   7.707  -2.503  1.00  0.00     0.047 C 
BRANCH  25  26
ATOM     26  C   UNL     1      15.435   8.293  -1.509  1.00  0.00     0.006 C 
BRANCH  26  27
ATOM     27  C   UNL     1      15.274   9.809  -1.496  1.00  0.00     0.001 CG0
ATOM     28  G   UNL     1      13.813  10.181  -1.738  1.00  0.00     0.000 G0
ENDBRANCH  26  27
ENDBRANCH  25  26
ENDBRANCH  18  25
ENDBRANCH   9  10
ENDBRANCH   8   9
ENDBRANCH   5   8
BRANCH   2  29
ATOM     29  C   UNL     1       1.688   3.852   1.077  1.00  0.00     0.197 C 
BRANCH  29  30
ATOM     30  N   UNL     1       1.578   2.524   0.469  1.00  0.00    -0.335 N 
BRANCH  30  31
ATOM     31  C   UNL     1       1.759   1.435   1.217  1.00  0.00     0.222 C 
ATOM     32  O   UNL     1       2.019   1.549   2.397  1.00  0.00    -0.275 OA
BRANCH  31  33
ATOM     33  C   UNL     1       1.641   0.058   0.600  1.00  0.00     0.100 C 
BRANCH  33  34
ATOM     34  C   UNL     1       0.167  -0.209   0.285  1.00  0.00     0.010 C 
BRANCH  34  35
ATOM     35  C   UNL     1      -0.208   0.372  -1.066  1.00  0.00     0.002 CG1
ATOM     36  G   UNL     1      -0.167   1.889  -1.114  1.00  0.00     0.000 G1
ENDBRANCH  34  35
ENDBRANCH  33  34
ENDBRANCH  31  33
ENDBRANCH  30  31
BRANCH  30  37
ATOM     37  C   UNL     1       1.268   2.400  -0.965  1.00  0.00     0.120 C 
BRANCH  37  38
ATOM     38  C   UNL     1      -0.167   1.889  -1.114  1.00  0.00     0.022 CG1
ATOM     39  G   UNL     1      -0.208   0.372  -1.066  1.00  0.00     0.000 G1
ENDBRANCH  37  38
ENDBRANCH  30  37
ENDBRANCH  29  30
ENDBRANCH   2  29
TORSDOF 7
