REMARK SMILES Oc1ccc2c3c1O[C@H]1c4c(c5ccccc5n4Cc4ccccc4)C[C@@]4(O)[C@@H](C2)[N@@H+](CC2CC2)CC[C@]314
REMARK SMILES IDX 18 1 17 2 16 3 15 4 14 5 13 6 12 7 11 8 10 9 9 10 38 11
REMARK SMILES IDX 37 12 36 13 29 14 27 15 26 16 30 17 5 18 6 19 7 20 2 21 3 22
REMARK SMILES IDX 4 23 8 24 31 25 19 27 20 28 23 29 24 30 22 31 25 32 21 33
REMARK SMILES IDX 28 34 1 36 32 38 33 39 35 40 34 41
REMARK H PARENT 31 26 28 35 1 37
REMARK Flexibility Score: inf
ROOT
ATOM      1  N   UNL     1      -2.856   1.941   7.346  1.00  0.00    -0.337 N 
ATOM      2  C   UNL     1      -1.902   1.716   8.295  1.00  0.00     0.049 A 
ATOM      3  C   UNL     1      -1.889   1.920   9.674  1.00  0.00     0.027 A 
ATOM      4  C   UNL     1      -0.731   1.575  10.348  1.00  0.00     0.002 A 
ATOM      5  C   UNL     1       0.375   1.050   9.697  1.00  0.00     0.001 A 
ATOM      6  C   UNL     1       0.390   0.838   8.341  1.00  0.00     0.010 A 
ATOM      7  C   UNL     1      -0.768   1.178   7.635  1.00  0.00     0.003 A 
ATOM      8  C   UNL     1      -1.123   1.102   6.233  1.00  0.00    -0.012 A 
ATOM      9  C   UNL     1      -2.381   1.575   6.111  1.00  0.00     0.064 A 
ATOM     10  C   UNL     1      -3.126   1.675   4.806  1.00  0.00     0.234 C 
ATOM     11  C   UNL     1      -2.262   1.231   3.631  1.00  0.00     0.082 C 
ATOM     12  C   UNL     1      -2.726   1.884   2.333  1.00  0.00     0.081 C 
ATOM     13  C   UNL     1      -2.014   1.218   1.151  1.00  0.00     0.263 C 
ATOM     14  C   UNL     1      -0.124   0.646   2.560  1.00  0.00     0.222 C 
ATOM     15  C   UNL     1      -0.751   1.339   3.778  1.00  0.00     0.134 C 
ATOM     16  C   UNL     1      -0.292   0.604   5.079  1.00  0.00     0.081 C 
ATOM     17  C   UNL     1      -0.424  -0.842   2.471  1.00  0.00     0.104 C 
ATOM     18  C   UNL     1      -1.747  -1.224   3.051  1.00  0.00    -0.034 A 
ATOM     19  C   UNL     1      -2.547  -0.250   3.604  1.00  0.00     0.015 A 
ATOM     20  C   UNL     1      -3.739  -0.467   4.277  1.00  0.00     0.166 A 
ATOM     21  C   UNL     1      -4.235  -1.775   4.322  1.00  0.00     0.158 A 
ATOM     22  C   UNL     1      -3.472  -2.762   3.703  1.00  0.00     0.050 A 
ATOM     23  C   UNL     1      -2.256  -2.510   3.088  1.00  0.00     0.008 A 
ATOM     24  O   UNL     1      -4.194   0.688   4.808  1.00  0.00    -0.479 OA
ATOM     25  N   UNL     1      -0.553   1.355   1.335  1.00  0.00    -0.330 N 
ATOM     26  H   UNL     1      -0.323   2.354   1.431  1.00  0.00     0.348 HD
ENDROOT
BRANCH   1  27
ATOM     27  C   UNL     1      -4.188   2.492   7.605  1.00  0.00     0.158 C 
BRANCH  27  28
ATOM     28  C   UNL     1      -4.152   3.990   7.445  1.00  0.00    -0.028 A 
ATOM     29  C   UNL     1      -4.087   6.739   7.152  1.00  0.00     0.000 A 
ATOM     30  C   UNL     1      -3.686   6.161   8.342  1.00  0.00     0.000 A 
ATOM     31  C   UNL     1      -4.520   5.942   6.109  1.00  0.00     0.000 A 
ATOM     32  C   UNL     1      -3.723   4.787   8.490  1.00  0.00     0.005 A 
ATOM     33  C   UNL     1      -4.554   4.568   6.255  1.00  0.00     0.005 A 
ENDBRANCH  27  28
ENDBRANCH   1  27
BRANCH  15  34
ATOM     34  O   UNL     1      -0.342   2.707   3.830  1.00  0.00    -0.382 OA
ATOM     35  H   UNL     1      -0.782   3.144   4.602  1.00  0.00     0.211 HD
ENDBRANCH  15  34
BRANCH  21  36
ATOM     36  O   UNL     1      -5.409  -2.070   4.944  1.00  0.00    -0.504 OA
ATOM     37  H   UNL     1      -6.071  -1.478   4.505  1.00  0.00     0.293 HD
ENDBRANCH  21  36
BRANCH  25  38
ATOM     38  C   UNL     1       0.157   0.807   0.161  1.00  0.00     0.266 C 
BRANCH  38  39
ATOM     39  C   UNL     1      -0.379   1.481  -1.103  1.00  0.00     0.044 C 
ATOM     40  C   UNL     1       0.321   1.161  -2.425  1.00  0.00     0.010 C 
ATOM     41  C   UNL     1      -1.071   0.592  -2.139  1.00  0.00     0.010 C 
ENDBRANCH  38  39
ENDBRANCH  25  38
TORSDOF 6
