REMARK SMILES COc1ccc(Cn2c(C)nc(/C=C/c3ccc(O)cc3)c(Cc3cccc4ccccc34)c2=O)cc1OC
REMARK SMILES IDX 10 1 9 2 11 3 12 4 22 5 34 6 35 7 8 8 7 9 6 10 36 11 5 12
REMARK SMILES IDX 37 13 4 14 3 15 38 16 39 17 2 18 1 19 13 20 14 21 15 22
REMARK SMILES IDX 21 23 16 24 20 25 17 26 18 27 19 28 23 30 24 31 33 32 25 33
REMARK SMILES IDX 28 34 32 35 26 36 27 37 29 38 31 39 30 40
REMARK H PARENT 19 29
REMARK Flexibility Score: inf
ROOT
ATOM      1  C   UNL     1      -1.654  -2.348   5.323  1.00  0.00     0.088 C 
ATOM      2  C   UNL     1      -1.840  -1.882   3.902  1.00  0.00     0.109 A 
ATOM      3  N   UNL     1      -3.042  -1.843   3.400  1.00  0.00    -0.235 NA
ATOM      4  C   UNL     1      -3.258  -1.433   2.135  1.00  0.00     0.074 A 
ATOM      5  C   UNL     1      -2.179  -1.044   1.348  1.00  0.00     0.048 A 
ATOM      6  C   UNL     1      -0.892  -1.099   1.905  1.00  0.00     0.257 A 
ATOM      7  O   UNL     1       0.084  -0.772   1.248  1.00  0.00    -0.269 OA
ATOM      8  N   UNL     1      -0.754  -1.515   3.181  1.00  0.00    -0.292 N 
ENDROOT
BRANCH   8   9
ATOM      9  C   UNL     1       0.578  -1.576   3.787  1.00  0.00     0.162 C 
BRANCH   9  10
ATOM     10  C   UNL     1       0.943  -0.220   4.334  1.00  0.00    -0.024 A 
ATOM     11  C   UNL     1       1.502   0.732   3.502  1.00  0.00     0.056 A 
ATOM     12  C   UNL     1       0.724   0.068   5.669  1.00  0.00     0.009 A 
ATOM     13  C   UNL     1       1.834   1.981   4.002  1.00  0.00     0.161 A 
ATOM     14  C   UNL     1       1.057   1.310   6.175  1.00  0.00     0.051 A 
ATOM     15  C   UNL     1       1.612   2.270   5.345  1.00  0.00     0.160 A 
BRANCH  13  16
ATOM     16  O   UNL     1       2.379   2.920   3.183  1.00  0.00    -0.493 OA
ATOM     17  C   UNL     1       2.577   2.553   1.817  1.00  0.00     0.278 C 
ENDBRANCH  13  16
BRANCH  15  18
ATOM     18  O   UNL     1       1.941   3.493   5.842  1.00  0.00    -0.493 OA
ATOM     19  C   UNL     1       1.686   3.719   7.230  1.00  0.00     0.278 C 
ENDBRANCH  15  18
ENDBRANCH   9  10
ENDBRANCH   8   9
BRANCH   4  20
ATOM     20  C   UNL     1      -4.622  -1.397   1.591  1.00  0.00     0.029 C 
ATOM     21  C   UNL     1      -5.662  -1.775   2.357  1.00  0.00     0.010 C 
BRANCH  21  22
ATOM     22  C   UNL     1      -7.029  -1.740   1.812  1.00  0.00    -0.025 A 
ATOM     23  C   UNL     1      -8.111  -2.132   2.607  1.00  0.00     0.012 A 
ATOM     24  C   UNL     1      -7.250  -1.309   0.500  1.00  0.00     0.012 A 
ATOM     25  C   UNL     1      -9.388  -2.097   2.092  1.00  0.00     0.047 A 
ATOM     26  C   UNL     1      -8.530  -1.284  -0.007  1.00  0.00     0.047 A 
ATOM     27  C   UNL     1      -9.602  -1.674   0.786  1.00  0.00     0.115 A 
BRANCH  27  28
ATOM     28  O   UNL     1     -10.863  -1.642   0.283  1.00  0.00    -0.508 OA
ATOM     29  H   UNL     1     -10.829  -2.206  -0.530  1.00  0.00     0.293 HD
ENDBRANCH  27  28
ENDBRANCH  21  22
ENDBRANCH   4  20
BRANCH   5  30
ATOM     30  C   UNL     1      -2.387  -0.580  -0.071  1.00  0.00     0.079 C 
BRANCH  30  31
ATOM     31  C   UNL     1      -2.503   0.922  -0.097  1.00  0.00    -0.035 A 
ATOM     32  C   UNL     1      -2.597   1.602  -1.323  1.00  0.00    -0.015 A 
ATOM     33  C   UNL     1      -2.524   1.627   1.067  1.00  0.00     0.005 A 
ATOM     34  C   UNL     1      -2.700   3.016  -1.327  1.00  0.00    -0.018 A 
ATOM     35  C   UNL     1      -2.572   0.909  -2.546  1.00  0.00     0.009 A 
ATOM     36  C   UNL     1      -2.631   3.016   1.063  1.00  0.00     0.001 A 
ATOM     37  C   UNL     1      -2.719   3.709  -0.105  1.00  0.00     0.009 A 
ATOM     38  C   UNL     1      -2.788   3.696  -2.554  1.00  0.00     0.009 A 
ATOM     39  C   UNL     1      -2.659   1.602  -3.714  1.00  0.00     0.001 A 
ATOM     40  C   UNL     1      -2.767   2.991  -3.718  1.00  0.00     0.001 A 
ENDBRANCH  30  31
ENDBRANCH   5  30
TORSDOF 9
