REMARK SMILES CCCCN1C(=O)[C@@H]([C@H](O)C(CC)CC)NC(=O)C12CC[NH+](Cc1ccc(Cc3ccc(C(=O)NC)cc3Cl)cc1)CC2
REMARK SMILES IDX 23 1 22 2 5 3 19 4 6 5 17 6 43 7 20 8 7 9 8 10 16 11 18 12
REMARK SMILES IDX 42 13 21 14 4 17 3 18 2 19 1 20 9 21 11 22 12 23 13 24 14 25
REMARK SMILES IDX 15 26 10 27 24 29 41 30 25 31 40 32 26 33 27 34 28 35 29 36
REMARK SMILES IDX 38 37 30 38 37 39 39 40 31 41 32 42 33 43 34 44 35 45 36 46
REMARK H PARENT 16 15 22 16 10 28 35 47
REMARK Flexibility Score: inf
ROOT
ATOM      1  C   UNL     1      -7.228   4.866   5.322  1.00  0.00     0.299 C 
ENDROOT
BRANCH   1   2
ATOM      2  N   UNL     1      -8.537   5.550   5.362  1.00  0.00    -0.331 N 
ATOM      3  N   UNL     1     -12.610   6.513   5.783  1.00  0.00    -0.326 N 
ATOM      4  C   UNL     1     -11.396   5.703   5.790  1.00  0.00     0.132 C 
ATOM      5  C   UNL     1     -13.835   5.986   5.721  1.00  0.00     0.248 C 
ATOM      6  C   UNL     1     -11.697   4.290   6.197  1.00  0.00     0.247 C 
ATOM      7  C   UNL     1     -10.777   5.706   4.387  1.00  0.00     0.100 C 
ATOM      8  C   UNL     1     -10.388   6.309   6.774  1.00  0.00     0.100 C 
ATOM      9  O   UNL     1     -14.790   6.734   5.716  1.00  0.00    -0.272 OA
ATOM     10  C   UNL     1     -14.081   4.508   5.657  1.00  0.00     0.200 C 
ATOM     11  N   UNL     1     -12.922   3.762   6.130  1.00  0.00    -0.340 N 
ATOM     12  O   UNL     1     -10.788   3.597   6.604  1.00  0.00    -0.272 OA
ATOM     13  C   UNL     1      -9.470   4.911   4.411  1.00  0.00     0.265 C 
ATOM     14  C   UNL     1      -9.092   5.497   6.731  1.00  0.00     0.265 C 
ATOM     15  H   UNL     1     -13.054   2.784   6.425  1.00  0.00     0.164 HD
ATOM     16  H   UNL     1      -8.408   6.536   5.092  1.00  0.00     0.348 HD
BRANCH   3  17
ATOM     17  C   UNL     1     -12.478   7.971   5.848  1.00  0.00     0.120 C 
BRANCH  17  18
ATOM     18  C   UNL     1     -12.627   8.432   7.299  1.00  0.00     0.021 C 
BRANCH  18  19
ATOM     19  C   UNL     1     -12.490   9.954   7.367  1.00  0.00    -0.002 C 
ATOM     20  C   UNL     1     -12.639  10.416   8.819  1.00  0.00     0.004 C 
ENDBRANCH  18  19
ENDBRANCH  17  18
ENDBRANCH   3  17
BRANCH  10  21
ATOM     21  C   UNL     1     -14.377   4.111   4.210  1.00  0.00     0.149 C 
BRANCH  21  22
ATOM     22  C   UNL     1     -14.538   2.592   4.121  1.00  0.00     0.020 C 
BRANCH  22  23
ATOM     23  C   UNL     1     -15.693   2.148   5.021  1.00  0.00     0.003 C 
ATOM     24  C   UNL     1     -15.775   0.621   5.029  1.00  0.00     0.004 C 
ENDBRANCH  22  23
BRANCH  22  25
ATOM     25  C   UNL     1     -14.838   2.196   2.674  1.00  0.00     0.003 C 
ATOM     26  C   UNL     1     -13.621   2.499   1.799  1.00  0.00     0.004 C 
ENDBRANCH  22  25
ENDBRANCH  21  22
BRANCH  21  27
ATOM     27  O   UNL     1     -15.584   4.744   3.780  1.00  0.00    -0.390 OA
ATOM     28  H   UNL     1     -15.480   5.727   3.837  1.00  0.00     0.211 HD
ENDBRANCH  21  27
ENDBRANCH  10  21
ENDBRANCH   1   2
BRANCH   1  29
ATOM     29  C   UNL     1      -6.806   4.691   3.886  1.00  0.00     0.006 A 
ATOM     30  C   UNL     1      -7.148   3.540   3.201  1.00  0.00     0.010 A 
ATOM     31  C   UNL     1      -6.078   5.681   3.254  1.00  0.00     0.010 A 
ATOM     32  C   UNL     1      -6.765   3.381   1.882  1.00  0.00     0.004 A 
ATOM     33  C   UNL     1      -5.690   5.520   1.937  1.00  0.00     0.004 A 
ATOM     34  C   UNL     1      -6.031   4.368   1.252  1.00  0.00    -0.044 A 
BRANCH  34  35
ATOM     35  C   UNL     1      -5.609   4.193  -0.184  1.00  0.00     0.072 C 
BRANCH  35  36
ATOM     36  C   UNL     1      -4.261   3.521  -0.233  1.00  0.00    -0.025 A 
ATOM     37  C   UNL     1      -4.177   2.140  -0.177  1.00  0.00     0.045 A 
ATOM     38  C   UNL     1      -3.113   4.286  -0.334  1.00  0.00     0.006 A 
ATOM     39  C   UNL     1      -2.944   1.518  -0.221  1.00  0.00     0.034 A 
ATOM     40  Cl  UNL     1      -5.623   1.188  -0.050  1.00  0.00    -0.084 Cl
ATOM     41  C   UNL     1      -1.875   3.678  -0.373  1.00  0.00     0.014 A 
ATOM     42  C   UNL     1      -1.783   2.286  -0.322  1.00  0.00     0.041 A 
BRANCH  42  43
ATOM     43  C   UNL     1      -0.460   1.627  -0.369  1.00  0.00     0.251 C 
ATOM     44  O   UNL     1      -0.382   0.415  -0.320  1.00  0.00    -0.269 OA
ATOM     45  N   UNL     1       0.659   2.371  -0.473  1.00  0.00    -0.355 N 
ATOM     46  C   UNL     1       1.970   1.718  -0.526  1.00  0.00     0.143 C 
ATOM     47  H   UNL     1       0.594   3.398  -0.515  1.00  0.00     0.163 HD
ENDBRANCH  42  43
ENDBRANCH  35  36
ENDBRANCH  34  35
ENDBRANCH   1  29
TORSDOF 13
