REMARK SMILES C[NH+](C)[C@@H](CNC(=O)Cc1cn(-c2ccccc2)nc1-c1ccc([N+](=O)[O-])cc1)c1cccc(F)c1
REMARK SMILES IDX 6 1 7 2 8 3 5 5 4 6 2 7 1 8 3 9 30 11 36 12 31 13 34 14
REMARK SMILES IDX 32 15 33 16 35 17 9 18 10 19 20 20 11 21 19 22 12 23 21 24
REMARK SMILES IDX 29 25 22 26 28 27 23 28 24 29 25 30 27 31 26 32 13 33 18 34
REMARK SMILES IDX 14 35 17 36 15 37 16 38
REMARK H PARENT 6 4 2 10
REMARK Flexibility Score: inf
ROOT
ATOM      1  N   UNL     1       1.150  -0.315   1.539  1.00  0.00    -0.349 N 
ATOM      2  C   UNL     1       1.710  -1.503   1.842  1.00  0.00     0.224 C 
ATOM      3  O   UNL     1       1.894  -2.326   0.971  1.00  0.00    -0.275 OA
ATOM      4  H   UNL     1       0.994   0.384   2.279  1.00  0.00     0.163 HD
ENDROOT
BRANCH   1   5
ATOM      5  C   UNL     1       0.764  -0.018   0.158  1.00  0.00     0.186 C 
BRANCH   5   6
ATOM      6  C   UNL     1       0.157   1.385   0.088  1.00  0.00     0.234 C 
BRANCH   6   7
ATOM      7  N   UNL     1      -0.946   1.477   1.067  1.00  0.00    -0.332 N 
ATOM      8  C   UNL     1      -1.445   2.866   1.136  1.00  0.00     0.333 C 
ATOM      9  C   UNL     1      -2.042   0.565   0.680  1.00  0.00     0.333 C 
ATOM     10  H   UNL     1      -0.593   1.202   1.995  1.00  0.00     0.348 HD
ENDBRANCH   6   7
BRANCH   6  11
ATOM     11  C   UNL     1      -0.351   1.643  -1.307  1.00  0.00     0.014 A 
ATOM     12  C   UNL     1      -1.146   0.704  -1.937  1.00  0.00     0.049 A 
ATOM     13  C   UNL     1      -0.027   2.821  -1.954  1.00  0.00     0.010 A 
ATOM     14  C   UNL     1      -1.614   0.942  -3.219  1.00  0.00     0.123 A 
ATOM     15  C   UNL     1      -0.489   3.057  -3.235  1.00  0.00     0.004 A 
ATOM     16  C   UNL     1      -1.284   2.120  -3.867  1.00  0.00     0.039 A 
ATOM     17  F   UNL     1      -2.392   0.026  -3.836  1.00  0.00    -0.207 F 
ENDBRANCH   6  11
ENDBRANCH   5   6
ENDBRANCH   1   5
BRANCH   2  18
ATOM     18  C   UNL     1       2.107  -1.808   3.264  1.00  0.00     0.139 C 
BRANCH  18  19
ATOM     19  C   UNL     1       2.705  -3.190   3.333  1.00  0.00     0.008 A 
ATOM     20  C   UNL     1       4.049  -3.525   3.079  1.00  0.00     0.096 A 
ATOM     21  C   UNL     1       2.047  -4.325   3.654  1.00  0.00     0.120 A 
ATOM     22  N   UNL     1       4.184  -4.825   3.241  1.00  0.00    -0.168 NA
ATOM     23  N   UNL     1       2.937  -5.351   3.600  1.00  0.00    -0.240 N 
BRANCH  20  24
ATOM     24  C   UNL     1       5.126  -2.579   2.696  1.00  0.00     0.003 A 
ATOM     25  C   UNL     1       6.429  -2.781   3.148  1.00  0.00     0.017 A 
ATOM     26  C   UNL     1       4.840  -1.487   1.879  1.00  0.00     0.017 A 
ATOM     27  C   UNL     1       7.426  -1.898   2.789  1.00  0.00     0.086 A 
ATOM     28  C   UNL     1       5.844  -0.606   1.531  1.00  0.00     0.086 A 
ATOM     29  C   UNL     1       7.135  -0.812   1.983  1.00  0.00     0.269 A 
BRANCH  29  30
ATOM     30  N   UNL     1       8.209   0.132   1.601  1.00  0.00     0.062 N 
ATOM     31  O   UNL     1       9.347  -0.048   1.997  1.00  0.00    -0.258 OA
ATOM     32  O   UNL     1       7.956   1.088   0.891  1.00  0.00    -0.258 OA
ENDBRANCH  29  30
ENDBRANCH  20  24
BRANCH  23  33
ATOM     33  C   UNL     1       2.656  -6.699   3.863  1.00  0.00     0.065 A 
ATOM     34  C   UNL     1       3.665  -7.649   3.776  1.00  0.00     0.028 A 
ATOM     35  C   UNL     1       1.371  -7.085   4.217  1.00  0.00     0.028 A 
ATOM     36  C   UNL     1       3.385  -8.976   4.036  1.00  0.00     0.002 A 
ATOM     37  C   UNL     1       1.096  -8.415   4.471  1.00  0.00     0.002 A 
ATOM     38  C   UNL     1       2.103  -9.359   4.383  1.00  0.00     0.000 A 
ENDBRANCH  23  33
ENDBRANCH  18  19
ENDBRANCH   2  18
TORSDOF 9
