REMARK SMILES C=C(C)CC[C@@H](C)Nc1cnc2c(c1)c(NC(=O)CCOC)c(C(=O)OC)n2CCc1c[nH]c2ccccc12
REMARK SMILES IDX 9 1 14 2 13 3 15 4 23 5 28 6 12 7 11 8 10 9 8 10 6 12 7 13
REMARK SMILES IDX 5 14 4 15 2 16 1 17 3 18 16 19 17 20 18 22 19 23 20 24 21 25
REMARK SMILES IDX 22 26 29 27 30 28 31 29 39 30 32 31 34 32 38 33 33 34 35 35
REMARK SMILES IDX 37 36 36 38 24 39 25 40 26 41 27 42
REMARK H PARENT 8 11 16 21 33 37
REMARK Flexibility Score: inf
ROOT
ATOM      1  C   UNL     1       1.749   1.915   2.115  1.00  0.00     0.054 A 
ATOM      2  C   UNL     1       2.843   1.198   1.650  1.00  0.00     0.041 A 
ATOM      3  C   UNL     1       3.757   1.858   0.823  1.00  0.00     0.046 A 
ATOM      4  C   UNL     1       4.995   1.450   0.157  1.00  0.00     0.084 A 
ATOM      5  C   UNL     1       5.455   2.556  -0.529  1.00  0.00     0.153 A 
ATOM      6  N   UNL     1       4.576   3.610  -0.323  1.00  0.00    -0.318 N 
ATOM      7  C   UNL     1       3.543   3.210   0.491  1.00  0.00     0.142 A 
ATOM      8  N   UNL     1       2.479   3.846   0.965  1.00  0.00    -0.236 NA
ATOM      9  C   UNL     1       1.600   3.248   1.740  1.00  0.00     0.139 A 
ENDROOT
BRANCH   1  10
ATOM     10  N   UNL     1       0.803   1.303   2.946  1.00  0.00    -0.381 N 
ATOM     11  H   UNL     1       0.919   0.317   3.220  1.00  0.00     0.160 HD
BRANCH  10  12
ATOM     12  C   UNL     1      -0.351   2.066   3.427  1.00  0.00     0.076 C 
ATOM     13  C   UNL     1       0.037   2.836   4.691  1.00  0.00     0.031 C 
BRANCH  12  14
ATOM     14  C   UNL     1      -1.499   1.106   3.747  1.00  0.00     0.029 C 
BRANCH  14  15
ATOM     15  C   UNL     1      -1.970   0.427   2.459  1.00  0.00     0.032 C 
BRANCH  15  16
ATOM     16  C   UNL     1      -3.101  -0.518   2.774  1.00  0.00    -0.080 C 
ATOM     17  C   UNL     1      -4.343  -0.119   2.648  1.00  0.00     0.007 C 
ATOM     18  C   UNL     1      -2.804  -1.922   3.234  1.00  0.00     0.039 C 
ENDBRANCH  15  16
ENDBRANCH  14  15
ENDBRANCH  12  14
ENDBRANCH  10  12
ENDBRANCH   1  10
BRANCH   4  19
ATOM     19  N   UNL     1       5.592   0.194   0.206  1.00  0.00    -0.323 N 
ATOM     20  C   UNL     1       4.872  -0.906  -0.089  1.00  0.00     0.226 C 
ATOM     21  H   UNL     1       6.584   0.105   0.468  1.00  0.00     0.170 HD
ATOM     22  O   UNL     1       3.756  -0.795  -0.551  1.00  0.00    -0.275 OA
BRANCH  20  23
ATOM     23  C   UNL     1       5.454  -2.275   0.154  1.00  0.00     0.129 C 
BRANCH  23  24
ATOM     24  C   UNL     1       4.439  -3.342  -0.262  1.00  0.00     0.169 C 
BRANCH  24  25
ATOM     25  O   UNL     1       4.990  -4.639  -0.031  1.00  0.00    -0.384 OA
ATOM     26  C   UNL     1       4.119  -5.714  -0.389  1.00  0.00     0.194 C 
ENDBRANCH  24  25
ENDBRANCH  23  24
ENDBRANCH  20  23
ENDBRANCH   4  19
BRANCH   6  27
ATOM     27  C   UNL     1       4.728   4.952  -0.889  1.00  0.00     0.129 C 
BRANCH  27  28
ATOM     28  C   UNL     1       5.536   5.824   0.073  1.00  0.00     0.059 C 
BRANCH  28  29
ATOM     29  C   UNL     1       5.692   7.205  -0.510  1.00  0.00    -0.021 A 
ATOM     30  C   UNL     1       4.734   8.308  -0.405  1.00  0.00     0.003 A 
ATOM     31  C   UNL     1       6.732   7.656  -1.229  1.00  0.00     0.087 A 
ATOM     32  C   UNL     1       5.309   9.390  -1.097  1.00  0.00     0.046 A 
ATOM     33  C   UNL     1       3.485   8.454   0.201  1.00  0.00     0.010 A 
ATOM     34  N   UNL     1       6.521   8.959  -1.588  1.00  0.00    -0.361 N 
ATOM     35  C   UNL     1       4.621  10.597  -1.167  1.00  0.00     0.026 A 
ATOM     36  C   UNL     1       2.825   9.648   0.116  1.00  0.00     0.001 A 
ATOM     37  H   UNL     1       7.172   9.533  -2.144  1.00  0.00     0.166 HD
ATOM     38  C   UNL     1       3.386  10.717  -0.568  1.00  0.00     0.002 A 
ENDBRANCH  28  29
ENDBRANCH  27  28
ENDBRANCH   6  27
BRANCH   5  39
ATOM     39  C   UNL     1       6.634   2.607  -1.315  1.00  0.00     0.356 C 
ATOM     40  O   UNL     1       7.327   1.614  -1.438  1.00  0.00    -0.244 OA
BRANCH  39  41
ATOM     41  O   UNL     1       6.987   3.757  -1.927  1.00  0.00    -0.464 OA
ATOM     42  C   UNL     1       8.187   3.736  -2.703  1.00  0.00     0.282 C 
ENDBRANCH  39  41
ENDBRANCH   5  39
TORSDOF 14
