REMARK SMILES C[C@@H]1[C@@H](C)CCC[C@H]1NC(=O)NC(=O)CSc1ccc2c(c1)OCCO2
REMARK SMILES IDX 15 1 13 2 9 3 10 4 11 6 12 7 14 9 8 10 4 11 3 12 2 13 5 14
REMARK SMILES IDX 1 15 6 16 7 17 16 18 17 19 22 20 18 21 21 22 19 23 20 24
REMARK SMILES IDX 23 25 26 26 24 27 25 28
REMARK H PARENT 9 5 12 8
REMARK Flexibility Score: inf
ROOT
ATOM      1  C   UNL     1       5.184   0.501  -0.033  1.00  0.00     0.175 C 
ENDROOT
BRANCH   1   2
ATOM      2  C   UNL     1       6.564  -0.103  -0.046  1.00  0.00     0.238 C 
ATOM      3  N   UNL     1       9.970   0.955  -0.066  1.00  0.00    -0.335 N 
ATOM      4  C   UNL     1       8.884   0.156  -0.061  1.00  0.00     0.321 C 
ATOM      5  H   UNL     1       9.855   1.979  -0.062  1.00  0.00     0.165 HD
ATOM      6  O   UNL     1       9.019  -1.052  -0.067  1.00  0.00    -0.248 OA
ATOM      7  N   UNL     1       7.650   0.696  -0.051  1.00  0.00    -0.277 N 
ATOM      8  H   UNL     1       7.535   1.720  -0.046  1.00  0.00     0.174 HD
ATOM      9  O   UNL     1       6.699  -1.308  -0.051  1.00  0.00    -0.274 OA
BRANCH   3  10
ATOM     10  C   UNL     1      11.312   0.368  -0.078  1.00  0.00     0.087 C 
ATOM     11  C   UNL     1      14.687   1.746  -1.317  1.00  0.00     0.008 C 
ATOM     12  C   UNL     1      13.700   0.750  -0.704  1.00  0.00    -0.009 C 
ATOM     13  C   UNL     1      12.299   1.364  -0.691  1.00  0.00     0.011 C 
ATOM     14  C   UNL     1      14.127   0.425   0.729  1.00  0.00     0.004 C 
ATOM     15  C   UNL     1      11.871   1.689  -2.124  1.00  0.00     0.010 C 
ATOM     16  C   UNL     1      13.141  -0.570   1.342  1.00  0.00     0.002 C 
ATOM     17  C   UNL     1      11.739   0.043   1.355  1.00  0.00     0.025 C 
ENDBRANCH   3  10
ENDBRANCH   1   2
BRANCH   1  18
ATOM     18  S   UNL     1       3.944  -0.823  -0.029  1.00  0.00    -0.116 SA
BRANCH  18  19
ATOM     19  C   UNL     1       2.405   0.034  -0.015  1.00  0.00     0.012 A 
ATOM     20  C   UNL     1       1.213  -0.679  -0.009  1.00  0.00     0.065 A 
ATOM     21  C   UNL     1       2.382   1.423  -0.010  1.00  0.00     0.019 A 
ATOM     22  C   UNL     1       0.002  -0.004   0.002  1.00  0.00     0.162 A 
ATOM     23  C   UNL     1       1.175   2.094   0.002  1.00  0.00     0.051 A 
ATOM     24  C   UNL     1      -0.017   1.386   0.010  1.00  0.00     0.161 A 
ATOM     25  O   UNL     1      -1.158  -0.716   0.002  1.00  0.00    -0.486 OA
ATOM     26  O   UNL     1      -1.197   2.066   0.030  1.00  0.00    -0.486 OA
ATOM     27  C   UNL     1      -2.344  -0.016   0.393  1.00  0.00     0.271 C 
ATOM     28  C   UNL     1      -2.369   1.332  -0.341  1.00  0.00     0.271 C 
ENDBRANCH  18  19
ENDBRANCH   1  18
TORSDOF 4
