REMARK SMILES C[C@H](NC(=O)[C@H]1Cc2c([nH]c3ccccc23)[C@H]2c3ccccc3C(=O)N21)C(=O)NCCc1ccccc1F
REMARK SMILES IDX 27 1 28 2 29 3 2 5 1 6 3 7 4 8 5 10 6 11 26 12 7 13 17 14
REMARK SMILES IDX 24 15 8 16 9 17 18 18 25 19 23 20 16 21 10 22 19 23 22 24
REMARK SMILES IDX 11 25 15 26 20 28 21 29 12 30 14 31 13 32 30 33 31 34 32 35
REMARK SMILES IDX 37 36 33 37 36 38 38 39 34 40 35 41
REMARK H PARENT 29 4 3 9 10 27
REMARK Flexibility Score: inf
ROOT
ATOM      1  C   UNL     1      -3.453   4.388  -1.897  1.00  0.00     0.242 C 
ATOM      2  O   UNL     1      -3.478   4.779  -0.750  1.00  0.00    -0.273 OA
ATOM      3  N   UNL     1      -4.192   5.010  -2.838  1.00  0.00    -0.354 N 
ATOM      4  H   UNL     1      -4.170   4.678  -3.812  1.00  0.00     0.163 HD
ENDROOT
BRANCH   1   5
ATOM      5  C   UNL     1      -2.595   3.207  -2.272  1.00  0.00     0.168 C 
ATOM      6  C   UNL     1      -3.477   2.096  -2.843  1.00  0.00     0.041 C 
BRANCH   5   7
ATOM      7  N   UNL     1      -1.896   2.714  -1.083  1.00  0.00    -0.343 N 
ATOM      8  C   UNL     1      -0.737   2.038  -1.213  1.00  0.00     0.243 C 
ATOM      9  H   UNL     1      -2.290   2.884  -0.146  1.00  0.00     0.164 HD
ATOM     10  O   UNL     1      -0.273   1.838  -2.316  1.00  0.00    -0.273 OA
BRANCH   8  11
ATOM     11  C   UNL     1      -0.019   1.531   0.011  1.00  0.00     0.180 C 
ATOM     12  N   UNL     1       1.395   1.916  -0.049  1.00  0.00    -0.314 N 
ATOM     13  C   UNL     1      -0.087  -0.002   0.055  1.00  0.00     0.073 C 
ATOM     14  C   UNL     1       2.352   1.577   1.030  1.00  0.00     0.164 C 
ATOM     15  C   UNL     1       2.058   2.555  -1.022  1.00  0.00     0.255 C 
ATOM     16  C   UNL     1       1.011  -0.549   0.931  1.00  0.00    -0.014 A 
ATOM     17  C   UNL     1       2.099   0.127   1.365  1.00  0.00     0.047 A 
ATOM     18  C   UNL     1       3.706   1.805   0.451  1.00  0.00    -0.007 A 
ATOM     19  O   UNL     1       1.542   3.143  -1.951  1.00  0.00    -0.269 OA
ATOM     20  C   UNL     1       3.502   2.435  -0.794  1.00  0.00     0.045 A 
ATOM     21  C   UNL     1       1.115  -1.893   1.471  1.00  0.00     0.003 A 
ATOM     22  N   UNL     1       2.889  -0.691   2.127  1.00  0.00    -0.356 N 
ATOM     23  C   UNL     1       4.971   1.520   0.915  1.00  0.00     0.007 A 
ATOM     24  C   UNL     1       4.585   2.809  -1.593  1.00  0.00     0.014 A 
ATOM     25  C   UNL     1       2.319  -1.927   2.218  1.00  0.00     0.046 A 
ATOM     26  C   UNL     1       0.291  -3.017   1.366  1.00  0.00     0.010 A 
ATOM     27  H   UNL     1       3.779  -0.414   2.566  1.00  0.00     0.166 HD
ATOM     28  C   UNL     1       6.041   1.893   0.107  1.00  0.00     0.000 A 
ATOM     29  C   UNL     1       5.851   2.521  -1.108  1.00  0.00     0.001 A 
ATOM     30  C   UNL     1       2.714  -3.093   2.871  1.00  0.00     0.026 A 
ATOM     31  C   UNL     1       0.705  -4.152   2.019  1.00  0.00     0.001 A 
ATOM     32  C   UNL     1       1.881  -4.192   2.750  1.00  0.00     0.002 A 
ENDBRANCH   8  11
ENDBRANCH   5   7
ENDBRANCH   1   5
BRANCH   3  33
ATOM     33  C   UNL     1      -5.026   6.157  -2.473  1.00  0.00     0.120 C 
BRANCH  33  34
ATOM     34  C   UNL     1      -5.756   6.672  -3.716  1.00  0.00     0.060 C 
BRANCH  34  35
ATOM     35  C   UNL     1      -6.614   7.853  -3.341  1.00  0.00    -0.010 A 
ATOM     36  C   UNL     1      -6.065   9.123  -3.300  1.00  0.00     0.126 A 
ATOM     37  C   UNL     1      -7.951   7.669  -3.043  1.00  0.00     0.007 A 
ATOM     38  C   UNL     1      -6.855  10.207  -2.955  1.00  0.00     0.039 A 
ATOM     39  F   UNL     1      -4.759   9.305  -3.596  1.00  0.00    -0.207 F 
ATOM     40  C   UNL     1      -8.737   8.751  -2.694  1.00  0.00     0.000 A 
ATOM     41  C   UNL     1      -8.190  10.020  -2.653  1.00  0.00     0.003 A 
ENDBRANCH  34  35
ENDBRANCH  33  34
ENDBRANCH   3  33
TORSDOF 6
