REMARK SMILES NC(=O)c1cc(/N=N/c2c(N)[nH]n(-c3ccccc3)c2=O)c(Cl)cc1Cl
REMARK SMILES IDX 8 1 7 2 9 3 13 4 12 5 20 6 10 7 21 9 14 10 17 11 18 12 16 13
REMARK SMILES IDX 19 14 15 15 11 16 6 19 22 20 5 21 24 22 23 23 4 24 25 25
REMARK SMILES IDX 26 26 2 27 3 28 1 29
REMARK H PARENT 12 8 11 17 11 18 1 30 1 31
REMARK Flexibility Score: inf
ROOT
ATOM      1  N   UNL     1      -2.512  -3.238  -0.003  1.00  0.00    -0.141 NA
ATOM      2  N   UNL     1      -3.633  -2.600   0.006  1.00  0.00    -0.149 NA
ENDROOT
BRANCH   1   3
ATOM      3  C   UNL     1      -2.503  -4.588  -0.010  1.00  0.00     0.194 A 
ATOM      4  N   UNL     1      -1.773  -6.729  -0.025  1.00  0.00    -0.217 N 
ATOM      5  N   UNL     1      -3.171  -6.720  -0.018  1.00  0.00    -0.274 N 
ATOM      6  C   UNL     1      -1.325  -5.458  -0.026  1.00  0.00     0.301 A 
ATOM      7  C   UNL     1      -3.620  -5.433  -0.008  1.00  0.00     0.150 A 
ATOM      8  H   UNL     1      -3.770  -7.558  -0.019  1.00  0.00     0.190 HD
ATOM      9  O   UNL     1      -0.161  -5.100  -0.036  1.00  0.00    -0.265 OA
BRANCH   4  10
ATOM     10  C   UNL     1      -0.969  -7.873  -0.037  1.00  0.00     0.067 A 
ATOM     11  C   UNL     1       0.622 -10.137  -0.060  1.00  0.00     0.000 A 
ATOM     12  C   UNL     1      -0.755 -10.262  -0.053  1.00  0.00     0.002 A 
ATOM     13  C   UNL     1       1.206  -8.884  -0.055  1.00  0.00     0.002 A 
ATOM     14  C   UNL     1      -1.552  -9.134  -0.036  1.00  0.00     0.028 A 
ATOM     15  C   UNL     1       0.415  -7.752  -0.044  1.00  0.00     0.028 A 
ENDBRANCH   4  10
BRANCH   7  16
ATOM     16  N   UNL     1      -4.926  -5.039   0.001  1.00  0.00    -0.382 N 
ATOM     17  H   UNL     1      -5.083  -4.021   0.009  1.00  0.00     0.158 HD
ATOM     18  H   UNL     1      -5.714  -5.702   0.002  1.00  0.00     0.158 HD
ENDBRANCH   7  16
ENDBRANCH   1   3
BRANCH   2  19
ATOM     19  C   UNL     1      -3.641  -1.232   0.013  1.00  0.00     0.105 A 
ATOM     20  C   UNL     1      -4.856  -0.538   0.023  1.00  0.00     0.070 A 
ATOM     21  C   UNL     1      -2.439  -0.526   0.011  1.00  0.00     0.047 A 
ATOM     22  C   UNL     1      -4.866   0.844   0.031  1.00  0.00     0.044 A 
ATOM     23  Cl  UNL     1      -6.355  -1.415   0.026  1.00  0.00    -0.082 Cl
ATOM     24  C   UNL     1      -2.457   0.868   0.018  1.00  0.00     0.060 A 
ATOM     25  C   UNL     1      -3.678   1.549   0.034  1.00  0.00     0.055 A 
ATOM     26  Cl  UNL     1      -3.701   3.285   0.050  1.00  0.00    -0.083 Cl
BRANCH  24  27
ATOM     27  C   UNL     1      -1.187   1.624   0.017  1.00  0.00     0.250 C 
ATOM     28  O   UNL     1      -1.204   2.839   0.023  1.00  0.00    -0.269 OA
ATOM     29  N   UNL     1      -0.011   0.966   0.007  1.00  0.00    -0.366 N 
ATOM     30  H   UNL     1       0.003  -0.064   0.002  1.00  0.00     0.159 HD
ATOM     31  H   UNL     1       0.874   1.493   0.006  1.00  0.00     0.159 HD
ENDBRANCH  24  27
ENDBRANCH   2  19
TORSDOF 5
