REMARK SMILES Cc1ccc(-c2csc3nc4c5ccccc5c(NCCN5CCOCC5)nn4c(=O)c23)cc1
REMARK SMILES IDX 20 1 19 2 18 4 6 5 32 6 7 7 9 8 30 9 8 10 10 11 31 12 29 13
REMARK SMILES IDX 11 14 28 15 12 16 17 17 13 18 16 19 14 20 15 21 5 22 1 23
REMARK SMILES IDX 2 24 34 25 3 26 33 27 4 28 21 29 22 30 27 31 23 32 26 33
REMARK SMILES IDX 24 34 25 35
REMARK H PARENT 19 3
REMARK Flexibility Score: inf
ROOT
ATOM      1  C   UNL     1      -4.964   3.973   0.069  1.00  0.00     0.130 C 
ENDROOT
BRANCH   1   2
ATOM      2  N   UNL     1      -3.708   3.219   0.054  1.00  0.00    -0.367 N 
ATOM      3  H   UNL     1      -3.725   2.189   0.048  1.00  0.00     0.162 HD
BRANCH   2   4
ATOM      4  C   UNL     1      -2.495   3.893   0.046  1.00  0.00     0.155 A 
ATOM      5  C   UNL     1      -0.016   9.515   0.051  1.00  0.00     0.008 A 
ATOM      6  C   UNL     1      -0.173   8.064   0.046  1.00  0.00     0.086 A 
ATOM      7  C   UNL     1       1.234  10.036   0.042  1.00  0.00     0.076 A 
ATOM      8  C   UNL     1       1.034   7.337   0.031  1.00  0.00     0.132 A 
ATOM      9  C   UNL     1      -1.367   7.287   0.053  1.00  0.00     0.283 A 
ATOM     10  S   UNL     1       2.284   8.596   0.025  1.00  0.00    -0.123 S 
ATOM     11  N   UNL     1       1.052   6.015   0.024  1.00  0.00    -0.217 NA
ATOM     12  O   UNL     1      -2.456   7.837   0.065  1.00  0.00    -0.267 OA
ATOM     13  N   UNL     1      -1.289   5.940   0.045  1.00  0.00    -0.175 N 
ATOM     14  C   UNL     1      -0.072   5.317   0.031  1.00  0.00     0.167 A 
ATOM     15  N   UNL     1      -2.476   5.196   0.053  1.00  0.00    -0.145 NA
ATOM     16  C   UNL     1      -0.019   3.849   0.023  1.00  0.00     0.030 A 
ATOM     17  C   UNL     1      -1.237   3.135   0.031  1.00  0.00     0.030 A 
ATOM     18  C   UNL     1       1.191   3.157   0.008  1.00  0.00     0.013 A 
ATOM     19  C   UNL     1      -1.219   1.741   0.017  1.00  0.00     0.013 A 
ATOM     20  C   UNL     1       1.185   1.779   0.000  1.00  0.00     0.001 A 
ATOM     21  C   UNL     1      -0.013   1.076   0.008  1.00  0.00     0.001 A 
BRANCH   5  22
ATOM     22  C   UNL     1      -1.203  10.402   0.067  1.00  0.00    -0.017 A 
ATOM     23  C   UNL     1      -4.629  12.960   0.113  1.00  0.00     0.044 C 
ATOM     24  C   UNL     1      -3.421  12.059   0.097  1.00  0.00    -0.051 A 
ATOM     25  C   UNL     1      -3.340  11.033  -0.828  1.00  0.00     0.004 A 
ATOM     26  C   UNL     1      -2.399  12.260   1.007  1.00  0.00     0.004 A 
ATOM     27  C   UNL     1      -2.235  10.207  -0.851  1.00  0.00     0.009 A 
ATOM     28  C   UNL     1      -1.291  11.437   0.997  1.00  0.00     0.009 A 
ENDBRANCH   5  22
ENDBRANCH   2   4
ENDBRANCH   1   2
BRANCH   1  29
ATOM     29  C   UNL     1      -6.143   2.998   0.075  1.00  0.00     0.106 C 
BRANCH  29  30
ATOM     30  N   UNL     1      -7.403   3.753   0.090  1.00  0.00    -0.297 NA
ATOM     31  C   UNL     1      -8.552   2.867  -0.142  1.00  0.00     0.113 C 
ATOM     32  C   UNL     1      -7.560   4.489   1.353  1.00  0.00     0.113 C 
ATOM     33  C   UNL     1      -9.835   3.701  -0.177  1.00  0.00     0.175 C 
ATOM     34  C   UNL     1      -8.853   5.308   1.303  1.00  0.00     0.175 C 
ATOM     35  O   UNL     1      -9.955   4.434   1.045  1.00  0.00    -0.379 OA
ENDBRANCH  29  30
ENDBRANCH   1  29
TORSDOF 5
