REMARK SMILES CC(C)[C@H]1Cc2c(sc3c2[C@@H](N)NC(SCC(=O)Nc2ccc(Br)cc2)=N3)CO1
REMARK SMILES IDX 16 1 15 2 14 3 4 4 29 5 5 6 28 7 6 8 7 9 10 10 8 11 9 12
REMARK SMILES IDX 11 13 27 14 13 15 2 17 1 18 3 19 12 20 17 23 18 24 19 25
REMARK SMILES IDX 20 27 26 28 21 29 25 30 22 31 23 32 24 33
REMARK H PARENT 13 16 12 21 12 22 19 26
REMARK Flexibility Score: inf
ROOT
ATOM      1  C   UNL     1      -1.332   2.079   0.026  1.00  0.00     0.178 C 
ENDROOT
BRANCH   1   2
ATOM      2  S   UNL     1      -1.025   3.863   0.030  1.00  0.00    -0.078 SA
BRANCH   2   3
ATOM      3  C   UNL     1      -2.683   4.458   0.052  1.00  0.00     0.164 C 
ATOM      4  C   UNL     1      -8.572   7.247   0.335  1.00  0.00     0.125 C 
ATOM      5  O   UNL     1      -9.333   6.153   0.852  1.00  0.00    -0.372 OA
ATOM      6  C   UNL     1      -7.118   7.152   0.807  1.00  0.00     0.069 C 
ATOM      7  C   UNL     1      -9.005   4.891   0.247  1.00  0.00     0.207 C 
ATOM      8  C   UNL     1      -6.612   5.744   0.501  1.00  0.00    -0.020 A 
ATOM      9  C   UNL     1      -7.517   4.755   0.251  1.00  0.00     0.036 A 
ATOM     10  C   UNL     1      -5.259   5.402   0.460  1.00  0.00     0.029 A 
ATOM     11  S   UNL     1      -6.519   3.324  -0.057  1.00  0.00    -0.118 S 
ATOM     12  C   UNL     1      -4.940   4.094   0.156  1.00  0.00     0.126 A 
ATOM     13  C   UNL     1      -4.107   6.369   0.732  1.00  0.00     0.181 C 
ATOM     14  N   UNL     1      -3.689   3.598   0.061  1.00  0.00    -0.214 NA
ATOM     15  N   UNL     1      -2.922   5.813   0.066  1.00  0.00    -0.345 N 
ATOM     16  H   UNL     1      -2.257   6.448  -0.398  1.00  0.00     0.164 HD
BRANCH   4  17
ATOM     17  C   UNL     1      -9.178   8.563   0.825  1.00  0.00     0.012 C 
ATOM     18  C   UNL     1     -10.624   8.671   0.337  1.00  0.00     0.010 C 
ATOM     19  C   UNL     1      -9.152   8.599   2.354  1.00  0.00     0.010 C 
ENDBRANCH   4  17
BRANCH  13  20
ATOM     20  N   UNL     1      -3.867   6.471   2.177  1.00  0.00    -0.307 NA
ATOM     21  H   UNL     1      -3.630   5.541   2.549  1.00  0.00     0.121 HD
ATOM     22  H   UNL     1      -4.721   6.816   2.640  1.00  0.00     0.121 HD
ENDBRANCH  13  20
ENDBRANCH   2   3
ENDBRANCH   1   2
BRANCH   1  23
ATOM     23  C   UNL     1      -0.016   1.344   0.008  1.00  0.00     0.234 C 
ATOM     24  O   UNL     1       1.026   1.964  -0.007  1.00  0.00    -0.274 OA
ATOM     25  N   UNL     1       0.002  -0.004   0.002  1.00  0.00    -0.325 N 
ATOM     26  H   UNL     1      -0.878  -0.532   0.087  1.00  0.00     0.169 HD
BRANCH  25  27
ATOM     27  C   UNL     1       1.218  -0.687  -0.119  1.00  0.00     0.041 A 
ATOM     28  C   UNL     1       2.367  -0.170   0.464  1.00  0.00     0.027 A 
ATOM     29  C   UNL     1       1.276  -1.885  -0.818  1.00  0.00     0.027 A 
ATOM     30  C   UNL     1       3.565  -0.845   0.343  1.00  0.00     0.018 A 
ATOM     31  C   UNL     1       2.478  -2.554  -0.941  1.00  0.00     0.018 A 
ATOM     32  C   UNL     1       3.622  -2.036  -0.358  1.00  0.00     0.018 A 
ATOM     33  Br  UNL     1       5.265  -2.958  -0.523  1.00  0.00    -0.051 Br
ENDBRANCH  25  27
ENDBRANCH   1  23
TORSDOF 6
