REMARK SMILES O=[N+]([O-])c1ccc(NCC[NH2+]Cc2cn(Cc3ccc(Cl)cc3Cl)c3ccccc23)c(Cl)c1
REMARK SMILES IDX 11 1 12 4 13 5 28 6 29 7 27 8 30 9 26 10 25 11 15 12 14 13
REMARK SMILES IDX 16 14 17 15 23 16 18 17 22 18 24 19 19 20 20 21 21 22 10 23
REMARK SMILES IDX 9 24 8 25 7 27 31 28 6 29 33 30 32 31 5 32 4 33 2 34 3 35
REMARK SMILES IDX 1 36
REMARK H PARENT 11 2 11 3 8 26
REMARK Flexibility Score: inf
ROOT
ATOM      1  N   UNL     1      -4.934   1.540   0.034  1.00  0.00    -0.341 N 
ATOM      2  H   UNL     1      -4.969   0.939   0.870  1.00  0.00     0.346 HD
ATOM      3  H   UNL     1      -4.976   0.948  -0.808  1.00  0.00     0.346 HD
ENDROOT
BRANCH   1   4
ATOM      4  C   UNL     1      -6.086   2.461   0.044  1.00  0.00     0.299 C 
BRANCH   4   5
ATOM      5  C   UNL     1      -7.361   1.657   0.046  1.00  0.00     0.032 A 
ATOM      6  C   UNL     1      -8.467   0.231   3.411  1.00  0.00     0.001 A 
ATOM      7  C   UNL     1      -7.655   0.926   2.559  1.00  0.00     0.011 A 
ATOM      8  C   UNL     1      -9.616  -0.390   2.940  1.00  0.00     0.002 A 
ATOM      9  C   UNL     1      -7.983   1.013   1.205  1.00  0.00     0.008 A 
ATOM     10  C   UNL     1      -9.958  -0.317   1.608  1.00  0.00     0.027 A 
ATOM     11  C   UNL     1      -9.146   0.386   0.723  1.00  0.00     0.049 A 
ATOM     12  N   UNL     1      -9.213   0.637  -0.629  1.00  0.00    -0.342 N 
ATOM     13  C   UNL     1      -8.144   1.401  -1.013  1.00  0.00     0.096 A 
BRANCH  12  14
ATOM     14  C   UNL     1     -10.274   0.164  -1.522  1.00  0.00     0.159 C 
BRANCH  14  15
ATOM     15  C   UNL     1     -11.434   1.123  -1.476  1.00  0.00    -0.010 A 
ATOM     16  C   UNL     1     -11.437   2.245  -2.286  1.00  0.00     0.047 A 
ATOM     17  C   UNL     1     -12.500   0.880  -0.630  1.00  0.00     0.008 A 
ATOM     18  C   UNL     1     -12.502   3.126  -2.244  1.00  0.00     0.041 A 
ATOM     19  Cl  UNL     1     -10.101   2.548  -3.354  1.00  0.00    -0.084 Cl
ATOM     20  C   UNL     1     -13.562   1.762  -0.584  1.00  0.00     0.021 A 
ATOM     21  C   UNL     1     -13.566   2.885  -1.393  1.00  0.00     0.042 A 
ATOM     22  Cl  UNL     1     -14.904   3.990  -1.340  1.00  0.00    -0.084 Cl
ENDBRANCH  14  15
ENDBRANCH  12  14
ENDBRANCH   4   5
ENDBRANCH   1   4
BRANCH   1  23
ATOM     23  C   UNL     1      -3.670   2.300   0.032  1.00  0.00     0.282 C 
BRANCH  23  24
ATOM     24  C   UNL     1      -2.495   1.321   0.021  1.00  0.00     0.174 C 
BRANCH  24  25
ATOM     25  N   UNL     1      -1.236   2.068   0.019  1.00  0.00    -0.378 N 
ATOM     26  H   UNL     1      -1.248   3.098   0.025  1.00  0.00     0.160 HD
BRANCH  25  27
ATOM     27  C   UNL     1      -0.017   1.385   0.010  1.00  0.00     0.054 A 
ATOM     28  C   UNL     1       1.179   2.093   0.002  1.00  0.00     0.071 A 
ATOM     29  C   UNL     1       0.002  -0.004   0.002  1.00  0.00     0.034 A 
ATOM     30  C   UNL     1       2.382   1.413  -0.014  1.00  0.00     0.108 A 
ATOM     31  Cl  UNL     1       1.162   3.829   0.011  1.00  0.00    -0.082 Cl
ATOM     32  C   UNL     1       1.208  -0.677  -0.013  1.00  0.00     0.088 A 
ATOM     33  C   UNL     1       2.397   0.030  -0.021  1.00  0.00     0.271 A 
BRANCH  33  34
ATOM     34  N   UNL     1       3.687  -0.695  -0.038  1.00  0.00     0.062 N 
ATOM     35  O   UNL     1       3.701  -1.913  -0.045  1.00  0.00    -0.258 OA
ATOM     36  O   UNL     1       4.734  -0.074  -0.045  1.00  0.00    -0.258 OA
ENDBRANCH  33  34
ENDBRANCH  25  27
ENDBRANCH  24  25
ENDBRANCH  23  24
ENDBRANCH   1  23
TORSDOF 9
