REMARK SMILES COc1ccc2c(c1)CCc1cc(CCC(=O)NC(=O)[C@H]3CCC[NH2+]C3)n(CCc3cccc(F)c3)c1-2
REMARK SMILES IDX 3 1 4 2 5 3 6 4 7 5 8 6 9 7 10 8 11 9 37 10 27 11 13 12
REMARK SMILES IDX 12 13 2 14 1 15 28 16 29 17 30 18 36 19 31 20 34 21 32 22
REMARK SMILES IDX 33 23 35 24 14 25 15 26 16 27 17 28 18 29 19 30 20 32 21 33
REMARK SMILES IDX 26 34 22 35 25 36 23 37 24 38
REMARK H PARENT 18 31 25 39 25 40
REMARK Flexibility Score: inf
ROOT
ATOM      1  C   UNL     1      -0.593  11.846  -8.389  1.00  0.00     0.119 A 
ATOM      2  C   UNL     1       0.502  11.090  -7.992  1.00  0.00     0.047 A 
ATOM      3  C   UNL     1       0.461  10.396  -6.800  1.00  0.00     0.014 A 
ATOM      4  C   UNL     1      -0.679  10.453  -6.009  1.00  0.00     0.002 A 
ATOM      5  C   UNL     1      -1.770  11.247  -6.386  1.00  0.00    -0.035 A 
ATOM      6  C   UNL     1      -1.723  11.924  -7.588  1.00  0.00     0.050 A 
ATOM      7  C   UNL     1      -2.960  11.406  -5.481  1.00  0.00     0.041 C 
ATOM      8  C   UNL     1      -3.272  10.133  -4.696  1.00  0.00     0.042 C 
ATOM      9  C   UNL     1      -2.003   9.577  -4.110  1.00  0.00    -0.022 A 
ATOM     10  C   UNL     1      -0.789   9.709  -4.739  1.00  0.00     0.052 A 
ATOM     11  N   UNL     1       0.149   9.087  -3.980  1.00  0.00    -0.344 N 
ATOM     12  C   UNL     1      -0.466   8.569  -2.873  1.00  0.00     0.019 A 
ATOM     13  C   UNL     1      -1.787   8.864  -2.934  1.00  0.00     0.027 A 
ENDROOT
BRANCH   1  14
ATOM     14  O   UNL     1      -0.558  12.515  -9.572  1.00  0.00    -0.497 OA
ATOM     15  C   UNL     1       0.634  12.394 -10.351  1.00  0.00     0.278 C 
ENDBRANCH   1  14
BRANCH  11  16
ATOM     16  C   UNL     1       1.576   8.985  -4.295  1.00  0.00     0.127 C 
BRANCH  16  17
ATOM     17  C   UNL     1       1.827   7.720  -5.118  1.00  0.00     0.057 C 
BRANCH  17  18
ATOM     18  C   UNL     1       3.295   7.614  -5.441  1.00  0.00    -0.043 A 
ATOM     19  C   UNL     1       4.146   6.946  -4.582  1.00  0.00     0.043 A 
ATOM     20  C   UNL     1       3.789   8.181  -6.602  1.00  0.00     0.004 A 
ATOM     21  C   UNL     1       5.495   6.849  -4.880  1.00  0.00     0.123 A 
ATOM     22  C   UNL     1       5.136   8.090  -6.897  1.00  0.00     0.003 A 
ATOM     23  C   UNL     1       5.989   7.422  -6.039  1.00  0.00     0.039 A 
ATOM     24  F   UNL     1       6.327   6.196  -4.040  1.00  0.00    -0.207 F 
ENDBRANCH  17  18
ENDBRANCH  16  17
ENDBRANCH  11  16
BRANCH  12  25
ATOM     25  C   UNL     1       0.214   7.802  -1.768  1.00  0.00     0.064 C 
BRANCH  25  26
ATOM     26  C   UNL     1       0.091   6.301  -2.038  1.00  0.00     0.107 C 
BRANCH  26  27
ATOM     27  C   UNL     1       0.770   5.535  -0.932  1.00  0.00     0.226 C 
ATOM     28  O   UNL     1       1.300   6.130  -0.019  1.00  0.00    -0.275 OA
ATOM     29  N   UNL     1       0.789   4.187  -0.959  1.00  0.00    -0.296 N 
ATOM     30  C   UNL     1       1.397   3.502   0.029  1.00  0.00     0.235 C 
ATOM     31  H   UNL     1       0.339   3.682  -1.735  1.00  0.00     0.172 HD
ATOM     32  O   UNL     1       1.927   4.097   0.943  1.00  0.00    -0.274 OA
BRANCH  30  33
ATOM     33  C   UNL     1       1.417   1.995  -0.001  1.00  0.00     0.134 C 
ATOM     34  C   UNL     1      -0.018   1.464   0.010  1.00  0.00     0.274 C 
ATOM     35  C   UNL     1       2.160   1.470   1.231  1.00  0.00     0.025 C 
ATOM     36  N   UNL     1       0.002  -0.004   0.002  1.00  0.00    -0.346 N 
ATOM     37  C   UNL     1       2.125  -0.061   1.224  1.00  0.00     0.062 C 
ATOM     38  C   UNL     1       0.669  -0.533   1.199  1.00  0.00     0.260 C 
ATOM     39  H   UNL     1      -0.966  -0.355  -0.031  1.00  0.00     0.346 HD
ATOM     40  H   UNL     1       0.502  -0.331  -0.837  1.00  0.00     0.346 HD
ENDBRANCH  30  33
ENDBRANCH  26  27
ENDBRANCH  25  26
ENDBRANCH  12  25
TORSDOF 8
