REMARK SMILES CC(C)[C@H](NC(=O)c1ccc(Br)cc1)C(=O)NC1CC(C)(C)[NH2+]C(C)(C)C1
REMARK SMILES IDX 4 1 2 2 1 3 3 4 15 5 16 6 17 7 18 9 19 10 27 11 20 12 24 13
REMARK SMILES IDX 23 14 21 15 22 16 25 17 26 18 5 21 6 22 7 24 8 25 14 26 9 27
REMARK SMILES IDX 13 28 10 29 11 30 12 31
REMARK H PARENT 17 8 23 19 23 20 5 23
REMARK Flexibility Score: inf
ROOT
ATOM      1  C   UNL     1       1.296   4.576  -5.479  1.00  0.00     0.174 C 
ENDROOT
BRANCH   1   2
ATOM      2  C   UNL     1       2.662   5.228  -5.253  1.00  0.00     0.015 C 
ATOM      3  C   UNL     1       3.636   4.189  -4.694  1.00  0.00     0.010 C 
ATOM      4  C   UNL     1       3.197   5.766  -6.582  1.00  0.00     0.010 C 
ENDBRANCH   1   2
BRANCH   1   5
ATOM      5  C   UNL     1       0.746   4.092  -4.162  1.00  0.00     0.243 C 
ATOM      6  O   UNL     1       0.025   4.812  -3.505  1.00  0.00    -0.273 OA
ATOM      7  N   UNL     1       1.056   2.859  -3.715  1.00  0.00    -0.351 N 
ATOM      8  H   UNL     1       1.608   2.221  -4.305  1.00  0.00     0.163 HD
BRANCH   7   9
ATOM      9  C   UNL     1       0.605   2.425  -2.386  1.00  0.00     0.094 C 
ATOM     10  C   UNL     1      -0.803   1.841  -2.498  1.00  0.00     0.093 C 
ATOM     11  C   UNL     1       1.543   1.336  -1.868  1.00  0.00     0.093 C 
ATOM     12  C   UNL     1      -1.289   1.360  -1.133  1.00  0.00     0.093 C 
ATOM     13  C   UNL     1       1.086   0.851  -0.494  1.00  0.00     0.093 C 
ATOM     14  N   UNL     1      -0.324   0.523  -0.452  1.00  0.00    -0.337 N 
ATOM     15  C   UNL     1      -2.572   0.530  -1.363  1.00  0.00     0.079 C 
ATOM     16  C   UNL     1      -1.679   2.568  -0.273  1.00  0.00     0.079 C 
ATOM     17  C   UNL     1       1.442   1.900   0.565  1.00  0.00     0.079 C 
ATOM     18  C   UNL     1       1.888  -0.427  -0.161  1.00  0.00     0.079 C 
ATOM     19  H   UNL     1      -0.604   0.466   0.537  1.00  0.00     0.347 HD
ATOM     20  H   UNL     1      -0.433  -0.436  -0.813  1.00  0.00     0.347 HD
ENDBRANCH   7   9
ENDBRANCH   1   5
BRANCH   1  21
ATOM     21  N   UNL     1       0.377   5.558  -6.061  1.00  0.00    -0.340 N 
ATOM     22  C   UNL     1       0.359   5.756  -7.394  1.00  0.00     0.251 C 
ATOM     23  H   UNL     1      -0.255   6.096  -5.452  1.00  0.00     0.164 HD
ATOM     24  O   UNL     1       1.105   5.121  -8.113  1.00  0.00    -0.269 OA
BRANCH  22  25
ATOM     25  C   UNL     1      -0.568   6.746  -7.981  1.00  0.00     0.039 A 
ATOM     26  C   UNL     1      -0.589   6.954  -9.361  1.00  0.00     0.015 A 
ATOM     27  C   UNL     1      -1.430   7.473  -7.158  1.00  0.00     0.015 A 
ATOM     28  C   UNL     1      -1.457   7.879  -9.903  1.00  0.00     0.016 A 
ATOM     29  C   UNL     1      -2.289   8.399  -7.711  1.00  0.00     0.016 A 
ATOM     30  C   UNL     1      -2.306   8.601  -9.081  1.00  0.00     0.018 A 
ATOM     31  Br  UNL     1      -3.493   9.867  -9.832  1.00  0.00    -0.051 Br
ENDBRANCH  22  25
ENDBRANCH   1  21
TORSDOF 5
