REMARK SMILES Cc1cc(C)c(C)c(S(=O)(=O)N[C@@H](C)C(=O)NCC2(N3CCOCC3)CCCCC2)c1C
REMARK SMILES IDX 13 1 14 2 12 3 9 5 10 6 11 7 8 8 1 9 2 10 31 11 3 12 32 13
REMARK SMILES IDX 4 14 6 15 5 16 7 17 15 18 16 19 17 20 18 22 19 23 30 24
REMARK SMILES IDX 26 25 29 26 27 27 28 28 20 29 25 30 21 31 24 32 22 33 23 34
REMARK H PARENT 12 4 17 21
REMARK Flexibility Score: inf
ROOT
ATOM      1  C   UNL     1       2.027   6.604   1.482  1.00  0.00     0.155 C 
ATOM      2  C   UNL     1       2.540   6.050   2.812  1.00  0.00     0.036 C 
ENDROOT
BRANCH   1   3
ATOM      3  N   UNL     1       2.518   7.972   1.300  1.00  0.00    -0.199 NA
ATOM      4  H   UNL     1       2.026   8.759   1.747  1.00  0.00     0.142 HD
BRANCH   3   5
ATOM      5  S   UNL     1       3.863   8.254   0.378  1.00  0.00     0.241 S 
ATOM      6  O   UNL     1       4.046   9.662   0.345  1.00  0.00    -0.207 OA
ATOM      7  O   UNL     1       4.870   7.366   0.845  1.00  0.00    -0.207 OA
BRANCH   5   8
ATOM      8  C   UNL     1       3.479   7.757  -1.269  1.00  0.00     0.088 A 
ATOM      9  C   UNL     1       4.059   4.795  -3.537  1.00  0.00     0.044 C 
ATOM     10  C   UNL     1       3.599   6.137  -3.028  1.00  0.00    -0.047 A 
ATOM     11  C   UNL     1       3.905   6.529  -1.738  1.00  0.00    -0.028 A 
ATOM     12  C   UNL     1       2.877   6.979  -3.853  1.00  0.00     0.007 A 
ATOM     13  C   UNL     1       4.699   5.614  -0.841  1.00  0.00     0.046 C 
ATOM     14  C   UNL     1       2.455   8.209  -3.385  1.00  0.00    -0.047 A 
ATOM     15  C   UNL     1       2.756   8.599  -2.094  1.00  0.00    -0.028 A 
ATOM     16  C   UNL     1       1.667   9.127  -4.285  1.00  0.00     0.044 C 
ATOM     17  C   UNL     1       2.297   9.941  -1.585  1.00  0.00     0.046 C 
ENDBRANCH   5   8
ENDBRANCH   3   5
ENDBRANCH   1   3
BRANCH   1  18
ATOM     18  C   UNL     1       0.520   6.607   1.487  1.00  0.00     0.237 C 
ATOM     19  O   UNL     1      -0.085   7.649   1.352  1.00  0.00    -0.273 OA
ATOM     20  N   UNL     1      -0.156   5.451   1.641  1.00  0.00    -0.353 N 
ATOM     21  H   UNL     1       0.358   4.565   1.755  1.00  0.00     0.163 HD
BRANCH  20  22
ATOM     22  C   UNL     1      -1.621   5.454   1.646  1.00  0.00     0.138 C 
BRANCH  22  23
ATOM     23  C   UNL     1      -2.133   4.025   1.835  1.00  0.00     0.038 C 
ATOM     24  C   UNL     1      -3.663   4.028   1.840  1.00  0.00     0.024 C 
ATOM     25  C   UNL     1      -1.629   3.146   0.689  1.00  0.00     0.024 C 
ATOM     26  C   UNL     1      -4.177   4.582   0.510  1.00  0.00     0.002 C 
ATOM     27  C   UNL     1      -2.143   3.700  -0.642  1.00  0.00     0.002 C 
ATOM     28  C   UNL     1      -3.672   3.704  -0.637  1.00  0.00     0.000 C 
BRANCH  23  29
ATOM     29  N   UNL     1      -1.641   3.493   3.113  1.00  0.00    -0.291 NA
ATOM     30  C   UNL     1      -2.106   4.314   4.240  1.00  0.00     0.113 C 
ATOM     31  C   UNL     1      -2.042   2.090   3.289  1.00  0.00     0.113 C 
ATOM     32  C   UNL     1      -1.522   3.761   5.543  1.00  0.00     0.175 C 
ATOM     33  C   UNL     1      -1.459   1.559   4.602  1.00  0.00     0.175 C 
ATOM     34  O   UNL     1      -1.897   2.388   5.682  1.00  0.00    -0.379 OA
ENDBRANCH  23  29
ENDBRANCH  22  23
ENDBRANCH  20  22
ENDBRANCH   1  18
TORSDOF 7
