REMARK SMILES O=C(NCc1n[nH]c2c1CCC2)c1nc(N2CCCC2)nc2c1CCCC2
REMARK SMILES IDX 2 1 1 2 3 3 13 5 25 6 24 7 26 8 23 9 27 10 22 11 21 12 14 13
REMARK SMILES IDX 15 14 16 15 20 16 17 17 19 18 18 19 4 20 5 21 6 22 9 23 7 24
REMARK SMILES IDX 10 25 8 26 11 28 12 29
REMARK H PARENT 3 4 7 27
REMARK Flexibility Score: inf
ROOT
ATOM      1  C   UNL     1       1.581  -2.014  -3.206  1.00  0.00     0.270 C 
ATOM      2  O   UNL     1       1.833  -2.675  -4.194  1.00  0.00    -0.267 OA
ATOM      3  N   UNL     1       2.167  -2.312  -2.029  1.00  0.00    -0.345 N 
ATOM      4  H   UNL     1       1.954  -1.752  -1.191  1.00  0.00     0.164 HD
ENDROOT
BRANCH   1   5
ATOM      5  C   UNL     1       0.627  -0.880  -3.294  1.00  0.00     0.137 A 
ATOM      6  C   UNL     1      -0.711  -1.189  -6.809  1.00  0.00     0.005 C 
ATOM      7  C   UNL     1       0.345  -1.389  -5.723  1.00  0.00     0.040 C 
ATOM      8  C   UNL     1      -0.900   0.316  -7.031  1.00  0.00     0.007 C 
ATOM      9  C   UNL     1       0.014  -0.564  -4.510  1.00  0.00     0.005 A 
ATOM     10  C   UNL     1      -1.591   0.905  -5.802  1.00  0.00     0.057 C 
ATOM     11  C   UNL     1      -0.870   0.496  -4.547  1.00  0.00     0.050 A 
ATOM     12  N   UNL     1      -1.100   1.179  -3.433  1.00  0.00    -0.218 NA
ATOM     13  N   UNL     1       0.350  -0.149  -2.219  1.00  0.00    -0.207 NA
ATOM     14  C   UNL     1      -0.504   0.859  -2.295  1.00  0.00     0.226 A 
BRANCH  14  15
ATOM     15  N   UNL     1      -0.776   1.600  -1.158  1.00  0.00    -0.341 N 
ATOM     16  C   UNL     1      -2.199   1.455  -0.756  1.00  0.00     0.120 C 
ATOM     17  C   UNL     1      -0.013   1.086   0.008  1.00  0.00     0.120 C 
ATOM     18  C   UNL     1      -2.223   1.850   0.736  1.00  0.00     0.023 C 
ATOM     19  C   UNL     1      -0.782   1.607   1.240  1.00  0.00     0.023 C 
ENDBRANCH  14  15
ENDBRANCH   1   5
BRANCH   3  20
ATOM     20  C   UNL     1       3.108  -3.432  -1.942  1.00  0.00     0.175 C 
BRANCH  20  21
ATOM     21  C   UNL     1       3.618  -3.551  -0.529  1.00  0.00     0.085 A 
ATOM     22  N   UNL     1       3.077  -4.266   0.423  1.00  0.00    -0.178 NA
ATOM     23  C   UNL     1       4.756  -2.919  -0.010  1.00  0.00    -0.002 A 
ATOM     24  N   UNL     1       3.849  -4.109   1.581  1.00  0.00    -0.282 N 
ATOM     25  C   UNL     1       5.875  -1.975  -0.396  1.00  0.00     0.040 C 
ATOM     26  C   UNL     1       4.872  -3.274   1.289  1.00  0.00     0.039 A 
ATOM     27  H   UNL     1       3.669  -4.551   2.493  1.00  0.00     0.190 HD
ATOM     28  C   UNL     1       6.451  -1.465   0.943  1.00  0.00     0.011 C 
ATOM     29  C   UNL     1       6.085  -2.614   1.908  1.00  0.00     0.056 C 
ENDBRANCH  20  21
ENDBRANCH   3  20
TORSDOF 4
