REMARK SMILES O=c1[nH]c(N2CCc3ccccc3C2)nc2c1CN(Cc1ccccc1)CN2
REMARK SMILES IDX 18 1 17 2 2 3 1 4 3 5 4 6 15 7 16 8 28 9 27 10 19 11 20 14
REMARK SMILES IDX 21 15 24 16 25 17 23 18 26 19 22 20 5 21 14 22 6 23 13 24
REMARK SMILES IDX 7 25 8 26 12 27 9 28 11 29 10 30
REMARK H PARENT 3 12 28 13
REMARK Flexibility Score: inf
ROOT
ATOM      1  C   UNL     1       1.266  -2.181  -0.029  1.00  0.00     0.132 C 
ATOM      2  C   UNL     1       1.212  -0.678  -0.016  1.00  0.00     0.074 A 
ATOM      3  C   UNL     1       2.396   0.065  -0.022  1.00  0.00     0.258 A 
ATOM      4  O   UNL     1       3.482  -0.494  -0.037  1.00  0.00    -0.269 OA
ATOM      5  N   UNL     1       2.317   1.413  -0.012  1.00  0.00    -0.292 N 
ATOM      6  C   UNL     1       1.103   2.027   0.002  1.00  0.00     0.207 A 
ATOM      7  N   UNL     1      -0.016   1.334   0.009  1.00  0.00    -0.197 NA
ATOM      8  C   UNL     1       0.002  -0.004   0.002  1.00  0.00     0.141 A 
ATOM      9  N   UNL     1      -1.184  -0.715   0.016  1.00  0.00    -0.357 N 
ATOM     10  C   UNL     1      -1.139  -2.153  -0.289  1.00  0.00     0.203 C 
ATOM     11  N   UNL     1      -0.009  -2.732   0.471  1.00  0.00    -0.277 NA
ATOM     12  H   UNL     1       3.179   1.978  -0.016  1.00  0.00     0.173 HD
ATOM     13  H   UNL     1      -2.076  -0.249   0.234  1.00  0.00     0.163 HD
ENDROOT
BRANCH  11  14
ATOM     14  C   UNL     1      -0.011  -4.205   0.337  1.00  0.00     0.122 C 
BRANCH  14  15
ATOM     15  C   UNL     1       0.245  -4.603  -1.094  1.00  0.00    -0.034 A 
ATOM     16  C   UNL     1       0.713  -5.334  -3.719  1.00  0.00     0.000 A 
ATOM     17  C   UNL     1      -0.581  -5.131  -3.279  1.00  0.00     0.000 A 
ATOM     18  C   UNL     1       1.774  -5.171  -2.847  1.00  0.00     0.000 A 
ATOM     19  C   UNL     1      -0.816  -4.771  -1.965  1.00  0.00     0.005 A 
ATOM     20  C   UNL     1       1.539  -4.805  -1.535  1.00  0.00     0.005 A 
ENDBRANCH  14  15
ENDBRANCH  11  14
BRANCH   6  21
ATOM     21  N   UNL     1       1.044   3.395   0.010  1.00  0.00    -0.338 N 
ATOM     22  C   UNL     1       1.871   3.963  -1.059  1.00  0.00     0.155 C 
ATOM     23  C   UNL     1      -0.345   3.864  -0.116  1.00  0.00     0.125 C 
ATOM     24  C   UNL     1       1.720   5.461  -1.104  1.00  0.00    -0.025 A 
ATOM     25  C   UNL     1      -0.394   5.344   0.263  1.00  0.00     0.057 C 
ATOM     26  C   UNL     1       0.664   6.104  -0.495  1.00  0.00    -0.041 A 
ATOM     27  C   UNL     1       2.678   6.201  -1.782  1.00  0.00     0.006 A 
ATOM     28  C   UNL     1       0.563   7.485  -0.567  1.00  0.00     0.004 A 
ATOM     29  C   UNL     1       2.577   7.576  -1.852  1.00  0.00     0.000 A 
ATOM     30  C   UNL     1       1.516   8.220  -1.243  1.00  0.00     0.000 A 
ENDBRANCH   6  21
TORSDOF 3
