REMARK SMILES COC(=O)c1sc2nc(C)nc(NCCc3cccc4cccnc34)c2c1C
REMARK SMILES IDX 13 1 12 3 28 4 27 5 5 6 26 7 6 8 7 9 8 10 11 11 9 12 10 13
REMARK SMILES IDX 3 14 4 15 2 16 1 17 14 18 15 19 16 20 25 21 17 22 20 23
REMARK SMILES IDX 24 24 18 25 19 26 21 27 23 28 22 29
REMARK H PARENT 13 2
REMARK Flexibility Score: inf
ROOT
ATOM      1  N   UNL     1       3.561   2.011  -0.679  1.00  0.00    -0.369 N 
ATOM      2  H   UNL     1       4.480   1.559  -0.572  1.00  0.00     0.162 HD
ENDROOT
BRANCH   1   3
ATOM      3  C   UNL     1       2.408   1.255  -0.616  1.00  0.00     0.138 A 
ATOM      4  C   UNL     1       4.964  -0.307   0.035  1.00  0.00     0.047 C 
ATOM      5  C   UNL     1       3.586  -0.916   0.038  1.00  0.00    -0.012 A 
ATOM      6  C   UNL     1       3.422  -2.234   0.342  1.00  0.00     0.118 A 
ATOM      7  C   UNL     1       2.470  -0.129  -0.272  1.00  0.00     0.058 A 
ATOM      8  S   UNL     1       1.656  -2.457   0.209  1.00  0.00    -0.108 S 
ATOM      9  C   UNL     1       1.221  -0.797  -0.242  1.00  0.00     0.130 A 
ATOM     10  N   UNL     1       0.096  -0.168  -0.515  1.00  0.00    -0.222 NA
ATOM     11  N   UNL     1       1.233   1.803  -0.875  1.00  0.00    -0.216 NA
ATOM     12  C   UNL     1       0.107   1.114  -0.826  1.00  0.00     0.129 A 
ATOM     13  C   UNL     1      -1.194   1.807  -1.140  1.00  0.00     0.090 C 
BRANCH   6  14
ATOM     14  C   UNL     1       4.445  -3.225   0.693  1.00  0.00     0.348 C 
ATOM     15  O   UNL     1       5.616  -2.900   0.737  1.00  0.00    -0.245 OA
BRANCH  14  16
ATOM     16  O   UNL     1       4.086  -4.496   0.965  1.00  0.00    -0.465 OA
ATOM     17  C   UNL     1       5.151  -5.423   1.304  1.00  0.00     0.282 C 
ENDBRANCH  14  16
ENDBRANCH   6  14
ENDBRANCH   1   3
BRANCH   1  18
ATOM     18  C   UNL     1       3.477   3.458  -0.896  1.00  0.00     0.119 C 
BRANCH  18  19
ATOM     19  C   UNL     1       4.886   4.052  -0.923  1.00  0.00     0.059 C 
BRANCH  19  20
ATOM     20  C   UNL     1       4.800   5.540  -1.148  1.00  0.00    -0.020 A 
ATOM     21  C   UNL     1       4.597   6.406  -0.060  1.00  0.00     0.073 A 
ATOM     22  C   UNL     1       4.914   6.049  -2.405  1.00  0.00     0.006 A 
ATOM     23  C   UNL     1       4.524   7.802  -0.295  1.00  0.00     0.000 A 
ATOM     24  N   UNL     1       4.475   5.934   1.185  1.00  0.00    -0.256 NA
ATOM     25  C   UNL     1       4.837   7.421  -2.634  1.00  0.00     0.001 A 
ATOM     26  C   UNL     1       4.646   8.292  -1.605  1.00  0.00     0.010 A 
ATOM     27  C   UNL     1       4.326   8.668   0.796  1.00  0.00     0.012 A 
ATOM     28  C   UNL     1       4.285   6.738   2.203  1.00  0.00     0.112 A 
ATOM     29  C   UNL     1       4.198   8.119   2.041  1.00  0.00     0.021 A 
ENDBRANCH  19  20
ENDBRANCH  18  19
ENDBRANCH   1  18
TORSDOF 6
