REMARK SMILES CCNS(=O)(=O)c1ccc(C)c(C(=O)N[C@H]2CCOc3ccccc32)c1
REMARK SMILES IDX 7 1 8 2 9 3 10 4 12 5 26 6 11 7 4 8 5 9 6 10 3 11 2 13 1 14
REMARK SMILES IDX 13 15 14 16 15 17 16 19 25 20 17 21 20 22 24 23 18 24 19 25
REMARK SMILES IDX 21 26 23 27 22 28
REMARK H PARENT 3 12 15 18
REMARK Flexibility Score: inf
ROOT
ATOM      1  C   UNL     1      -0.946   1.857   1.442  1.00  0.00     0.083 A 
ATOM      2  C   UNL     1      -2.049   1.145   1.881  1.00  0.00     0.022 A 
ATOM      3  C   UNL     1      -2.748   1.560   3.001  1.00  0.00     0.005 A 
ATOM      4  C   UNL     1      -2.348   2.688   3.688  1.00  0.00    -0.038 A 
ATOM      5  C   UNL     1      -1.236   3.410   3.251  1.00  0.00     0.044 A 
ATOM      6  C   UNL     1      -0.533   2.983   2.123  1.00  0.00     0.035 A 
ATOM      7  C   UNL     1      -3.109   3.138   4.908  1.00  0.00     0.045 C 
ENDROOT
BRANCH   1   8
ATOM      8  S   UNL     1      -0.064   1.319   0.015  1.00  0.00     0.240 S 
ATOM      9  O   UNL     1      -0.320  -0.072  -0.120  1.00  0.00    -0.207 OA
ATOM     10  O   UNL     1       1.252   1.844   0.130  1.00  0.00    -0.207 OA
BRANCH   8  11
ATOM     11  N   UNL     1      -0.756   2.058  -1.296  1.00  0.00    -0.211 NA
ATOM     12  H   UNL     1      -1.234   1.493  -2.012  1.00  0.00     0.141 HD
BRANCH  11  13
ATOM     13  C   UNL     1      -0.687   3.514  -1.437  1.00  0.00     0.095 C 
ATOM     14  C   UNL     1      -1.052   3.905  -2.870  1.00  0.00     0.022 C 
ENDBRANCH  11  13
ENDBRANCH   8  11
ENDBRANCH   1   8
BRANCH   5  15
ATOM     15  C   UNL     1      -0.803   4.620   3.982  1.00  0.00     0.252 C 
ATOM     16  O   UNL     1      -1.344   4.925   5.027  1.00  0.00    -0.269 OA
ATOM     17  N   UNL     1       0.193   5.383   3.491  1.00  0.00    -0.345 N 
ATOM     18  H   UNL     1       0.652   5.124   2.606  1.00  0.00     0.164 HD
BRANCH  17  19
ATOM     19  C   UNL     1       0.623   6.582   4.215  1.00  0.00     0.120 C 
ATOM     20  C   UNL     1      -0.261   7.742   3.834  1.00  0.00     0.017 A 
ATOM     21  C   UNL     1       2.076   6.901   3.855  1.00  0.00     0.071 C 
ATOM     22  C   UNL     1       0.264   9.001   3.597  1.00  0.00     0.124 A 
ATOM     23  C   UNL     1      -1.625   7.533   3.723  1.00  0.00     0.010 A 
ATOM     24  C   UNL     1       2.406   8.303   4.384  1.00  0.00     0.232 C 
ATOM     25  O   UNL     1       1.596   9.249   3.685  1.00  0.00    -0.493 OA
ATOM     26  C   UNL     1      -0.585  10.048   3.252  1.00  0.00     0.047 A 
ATOM     27  C   UNL     1      -2.465   8.574   3.379  1.00  0.00     0.001 A 
ATOM     28  C   UNL     1      -1.944   9.833   3.144  1.00  0.00     0.004 A 
ENDBRANCH  17  19
ENDBRANCH   5  15
TORSDOF 5
