REMARK SMILES C[C@]1(c2cc(F)ccc2F)[N-]C(=O)N(CC(=O)c2c(-c3ccc(F)cc3)[nH]c3ccccc23)C1=O
REMARK SMILES IDX 15 1 14 2 1 3 2 4 11 5 34 6 12 7 35 8 13 9 3 10 9 11 4 12
REMARK SMILES IDX 8 13 10 14 5 15 7 16 6 17 16 18 17 19 18 20 19 21 33 22
REMARK SMILES IDX 27 23 28 24 32 25 29 27 31 28 30 29 20 30 26 31 21 32 25 33
REMARK SMILES IDX 22 34 23 35 24 36
REMARK H PARENT 27 26
REMARK Flexibility Score: inf
ROOT
ATOM      1  C   UNL     1       5.387   0.771  -0.045  1.00  0.00     0.093 C 
ENDROOT
BRANCH   1   2
ATOM      2  N   UNL     1       6.852   0.804  -0.059  1.00  0.00    -0.373 N 
ATOM      3  C   UNL     1       9.790  -0.383  -1.206  1.00  0.00     0.024 C 
ATOM      4  C   UNL     1       9.040   0.856  -0.714  1.00  0.00     0.062 C 
ATOM      5  N   UNL     1       8.928   0.846   0.755  1.00  0.00    -0.413 NA
ATOM      6  C   UNL     1       7.598   0.822  -1.181  1.00  0.00     0.160 C 
ATOM      7  C   UNL     1       7.614   0.816   1.040  1.00  0.00     0.162 C 
ATOM      8  O   UNL     1       7.199   0.813  -2.326  1.00  0.00    -0.298 OA
ATOM      9  O   UNL     1       7.169   0.800   2.171  1.00  0.00    -0.298 OA
BRANCH   4  10
ATOM     10  C   UNL     1       9.727   2.112  -1.185  1.00  0.00     0.003 A 
ATOM     11  C   UNL     1       9.908   2.336  -2.539  1.00  0.00     0.127 A 
ATOM     12  C   UNL     1      10.173   3.042  -0.265  1.00  0.00     0.047 A 
ATOM     13  C   UNL     1      10.539   3.490  -2.972  1.00  0.00     0.042 A 
ATOM     14  F   UNL     1       9.468   1.429  -3.438  1.00  0.00    -0.207 F 
ATOM     15  C   UNL     1      10.809   4.193  -0.698  1.00  0.00     0.123 A 
ATOM     16  C   UNL     1      10.989   4.418  -2.052  1.00  0.00     0.042 A 
ATOM     17  F   UNL     1      11.248   5.101   0.202  1.00  0.00    -0.207 F 
ENDBRANCH   4  10
ENDBRANCH   1   2
BRANCH   1  18
ATOM     18  C   UNL     1       4.853   2.180  -0.033  1.00  0.00     0.165 C 
ATOM     19  O   UNL     1       5.621   3.121  -0.036  1.00  0.00    -0.294 OA
BRANCH  18  20
ATOM     20  C   UNL     1       3.459   2.407  -0.019  1.00  0.00     0.051 A 
ATOM     21  C   UNL     1       2.811   3.641  -0.006  1.00  0.00     0.057 A 
ATOM     22  C   UNL     1       2.395   1.385  -0.014  1.00  0.00     0.011 A 
ATOM     23  N   UNL     1       1.465   3.437   0.006  1.00  0.00    -0.354 N 
ATOM     24  C   UNL     1       1.179   2.086   0.002  1.00  0.00     0.047 A 
ATOM     25  C   UNL     1       2.400  -0.008  -0.021  1.00  0.00     0.011 A 
ATOM     26  H   UNL     1       0.758   4.186   0.016  1.00  0.00     0.167 HD
ATOM     27  C   UNL     1      -0.017   1.374   0.010  1.00  0.00     0.027 A 
ATOM     28  C   UNL     1       1.205  -0.695  -0.013  1.00  0.00     0.001 A 
ATOM     29  C   UNL     1       0.002  -0.004   0.002  1.00  0.00     0.002 A 
BRANCH  21  30
ATOM     30  C   UNL     1       3.477   4.956  -0.005  1.00  0.00    -0.001 A 
ATOM     31  C   UNL     1       3.024   5.973  -0.850  1.00  0.00     0.013 A 
ATOM     32  C   UNL     1       4.561   5.193   0.846  1.00  0.00     0.013 A 
ATOM     33  C   UNL     1       3.650   7.201  -0.844  1.00  0.00     0.040 A 
ATOM     34  C   UNL     1       5.183   6.423   0.838  1.00  0.00     0.040 A 
ATOM     35  C   UNL     1       4.728   7.428  -0.002  1.00  0.00     0.123 A 
ATOM     36  F   UNL     1       5.338   8.634  -0.001  1.00  0.00    -0.207 F 
ENDBRANCH  21  30
ENDBRANCH  18  20
ENDBRANCH   1  18
TORSDOF 5
