REMARK SMILES Nn1c(SCc2nc(O)c3cc(Br)cc(Br)c3n2)nnc1-c1ccco1
REMARK SMILES IDX 5 1 4 2 3 3 21 4 2 5 20 6 19 7 22 8 24 9 25 10 23 11 26 12
REMARK SMILES IDX 1 13 6 16 18 17 7 18 17 19 8 20 10 21 15 22 11 23 14 24
REMARK SMILES IDX 16 25 12 26 13 27 9 28
REMARK H PARENT 1 14 1 15 9 29
REMARK Flexibility Score: inf
ROOT
ATOM      1  C   UNL     1      -5.170  -3.570   0.097  1.00  0.00     0.155 C 
ENDROOT
BRANCH   1   2
ATOM      2  S   UNL     1      -4.950  -1.808   0.449  1.00  0.00    -0.076 SA
BRANCH   2   3
ATOM      3  C   UNL     1      -3.214  -1.659   0.186  1.00  0.00     0.210 A 
ATOM      4  C   UNL     1      -1.177  -0.884   0.009  1.00  0.00     0.218 A 
ATOM      5  N   UNL     1      -2.470  -0.519   0.311  1.00  0.00    -0.214 N 
ATOM      6  N   UNL     1      -1.196  -2.168  -0.276  1.00  0.00    -0.124 NA
ATOM      7  N   UNL     1      -2.393  -2.623  -0.167  1.00  0.00    -0.121 NA
BRANCH   4   8
ATOM      8  C   UNL     1       0.002  -0.004   0.002  1.00  0.00     0.173 A 
ATOM      9  C   UNL     1       2.091   0.758  -0.014  1.00  0.00     0.043 A 
ATOM     10  C   UNL     1       1.245   1.807  -0.000  1.00  0.00     0.196 A 
ATOM     11  C   UNL     1       1.303  -0.409  -0.013  1.00  0.00     0.054 A 
ATOM     12  O   UNL     1      -0.016   1.343   0.009  1.00  0.00    -0.461 OA
ENDBRANCH   4   8
BRANCH   5  13
ATOM     13  N   UNL     1      -2.917   0.724   0.661  1.00  0.00    -0.335 N 
ATOM     14  H   UNL     1      -2.189   1.451   0.698  1.00  0.00     0.178 HD
ATOM     15  H   UNL     1      -3.901   0.937   0.876  1.00  0.00     0.178 HD
ENDBRANCH   5  13
ENDBRANCH   2   3
ENDBRANCH   1   2
BRANCH   1  16
ATOM     16  C   UNL     1      -6.622  -3.938   0.264  1.00  0.00     0.143 A 
ATOM     17  N   UNL     1      -7.456  -3.008   0.617  1.00  0.00    -0.230 NA
ATOM     18  N   UNL     1      -6.990  -5.227   0.042  1.00  0.00    -0.197 NA
ATOM     19  C   UNL     1      -8.778  -3.263   0.781  1.00  0.00     0.092 A 
ATOM     20  C   UNL     1      -8.282  -5.608   0.178  1.00  0.00     0.222 A 
ATOM     21  C   UNL     1      -9.254  -4.576   0.572  1.00  0.00     0.065 A 
ATOM     22  C   UNL     1      -9.677  -2.261   1.155  1.00  0.00     0.045 A 
ATOM     23  C   UNL     1     -10.607  -4.865   0.740  1.00  0.00     0.031 A 
ATOM     24  C   UNL     1     -11.011  -2.566   1.316  1.00  0.00     0.033 A 
ATOM     25  Br  UNL     1      -9.066  -0.495   1.442  1.00  0.00    -0.048 Br
ATOM     26  C   UNL     1     -11.475  -3.860   1.109  1.00  0.00     0.020 A 
ATOM     27  Br  UNL     1     -13.312  -4.245   1.338  1.00  0.00    -0.051 Br
BRANCH  20  28
ATOM     28  O   UNL     1      -8.626  -6.759  -0.017  1.00  0.00    -0.493 OA
ATOM     29  H   UNL     1      -8.056  -7.291   0.594  1.00  0.00     0.295 HD
ENDBRANCH  20  28
ENDBRANCH   1  16
TORSDOF 6
