REMARK SMILES Cc1cc(C(=O)N2CCN(Cc3ccc(Cl)s3)CC2)c2cnn(Cc3cccs3)c2n1
REMARK SMILES IDX 5 1 6 2 7 3 8 4 9 5 10 6 18 7 19 8 4 9 1 10 2 11 31 12 3 13
REMARK SMILES IDX 30 14 20 15 23 16 21 17 22 18 24 19 25 20 29 21 26 22 28 23
REMARK SMILES IDX 27 24 11 25 12 26 17 27 13 28 15 29 14 30 16 31
REMARK H PARENT
REMARK Flexibility Score: inf
ROOT
ATOM      1  C   UNL     1       5.921  -2.609  -4.509  1.00  0.00     0.254 C 
ATOM      2  O   UNL     1       7.130  -2.733  -4.471  1.00  0.00    -0.269 OA
ATOM      3  N   UNL     1       5.335  -1.539  -3.936  1.00  0.00    -0.336 N 
ATOM      4  C   UNL     1       6.129  -0.556  -3.183  1.00  0.00     0.135 C 
ATOM      5  C   UNL     1       5.476  -0.349  -1.813  1.00  0.00     0.106 C 
ATOM      6  N   UNL     1       4.062   0.004  -1.996  1.00  0.00    -0.295 NA
ATOM      7  C   UNL     1       3.320  -1.087  -2.641  1.00  0.00     0.106 C 
ATOM      8  C   UNL     1       3.884  -1.324  -4.045  1.00  0.00     0.135 C 
ENDROOT
BRANCH   1   9
ATOM      9  C   UNL     1       5.094  -3.632  -5.184  1.00  0.00     0.054 A 
ATOM     10  C   UNL     1       2.403  -3.876  -7.824  1.00  0.00     0.067 C 
ATOM     11  C   UNL     1       3.408  -4.265  -6.769  1.00  0.00     0.041 A 
ATOM     12  N   UNL     1       3.543  -5.534  -6.452  1.00  0.00    -0.234 NA
ATOM     13  C   UNL     1       4.161  -3.276  -6.155  1.00  0.00     0.038 A 
ATOM     14  C   UNL     1       4.409  -5.938  -5.533  1.00  0.00     0.159 A 
ATOM     15  C   UNL     1       5.220  -5.002  -4.861  1.00  0.00     0.052 A 
ATOM     16  N   UNL     1       4.740  -7.168  -5.027  1.00  0.00    -0.242 N 
ATOM     17  C   UNL     1       6.026  -5.723  -3.955  1.00  0.00     0.146 A 
ATOM     18  N   UNL     1       5.737  -6.989  -4.061  1.00  0.00    -0.178 NA
BRANCH  16  19
ATOM     19  C   UNL     1       4.151  -8.449  -5.427  1.00  0.00     0.193 C 
BRANCH  19  20
ATOM     20  C   UNL     1       2.953  -8.743  -4.561  1.00  0.00     0.026 A 
ATOM     21  S   UNL     1       2.875  -9.629  -3.013  1.00  0.00    -0.147 S 
ATOM     22  C   UNL     1       1.654  -8.410  -4.760  1.00  0.00     0.017 A 
ATOM     23  C   UNL     1       1.118  -9.487  -2.730  1.00  0.00     0.065 A 
ATOM     24  C   UNL     1       0.714  -8.791  -3.821  1.00  0.00     0.012 A 
ENDBRANCH  19  20
ENDBRANCH  16  19
ENDBRANCH   1   9
BRANCH   6  25
ATOM     25  C   UNL     1       3.443   0.378  -0.717  1.00  0.00     0.131 C 
BRANCH  25  26
ATOM     26  C   UNL     1       2.079   0.965  -0.972  1.00  0.00     0.020 A 
ATOM     27  S   UNL     1       1.623   2.667  -1.261  1.00  0.00    -0.127 S 
ATOM     28  C   UNL     1       0.880   0.338  -1.042  1.00  0.00     0.018 A 
ATOM     29  C   UNL     1      -0.135   2.428  -1.456  1.00  0.00     0.093 A 
ATOM     30  C   UNL     1      -0.256   1.087  -1.290  1.00  0.00     0.033 A 
ATOM     31  Cl  UNL     1      -1.369   3.604  -1.781  1.00  0.00    -0.072 Cl
ENDBRANCH  25  26
ENDBRANCH   6  25
TORSDOF 5
