REMARK SMILES Cc1cc(C(=O)NNC(=O)[C@H](Cc2ccccc2)NC(=O)OCC2c3ccccc3-c3ccccc32)c(C)o1
REMARK SMILES IDX 19 1 20 2 21 3 11 5 9 6 8 7 10 9 7 10 5 11 6 12 4 14 1 15
REMARK SMILES IDX 2 16 39 17 3 18 37 19 38 20 12 21 13 22 18 23 14 24 17 25
REMARK SMILES IDX 15 26 16 27 22 28 23 29 24 30 36 31 25 32 31 33 35 34 30 35
REMARK SMILES IDX 26 36 32 37 34 38 29 39 27 40 33 41 28 42
REMARK H PARENT 19 4 8 8 7 13
REMARK Flexibility Score: inf
ROOT
ATOM      1  N   UNL     1      -3.849   6.505  -2.143  1.00  0.00    -0.309 N 
ATOM      2  C   UNL     1      -2.501   6.498  -2.159  1.00  0.00     0.407 C 
ATOM      3  O   UNL     1      -1.902   6.982  -3.099  1.00  0.00    -0.225 OA
ATOM      4  H   UNL     1      -4.356   6.094  -1.346  1.00  0.00     0.167 HD
ENDROOT
BRANCH   1   5
ATOM      5  C   UNL     1      -4.592   7.097  -3.258  1.00  0.00     0.181 C 
BRANCH   5   6
ATOM      6  C   UNL     1      -5.950   7.539  -2.778  1.00  0.00     0.261 C 
ATOM      7  N   UNL     1      -6.813   8.116  -3.638  1.00  0.00    -0.266 N 
ATOM      8  H   UNL     1      -6.545   8.254  -4.622  1.00  0.00     0.191 HD
ATOM      9  O   UNL     1      -6.266   7.376  -1.619  1.00  0.00    -0.271 OA
BRANCH   7  10
ATOM     10  N   UNL     1      -8.076   8.527  -3.192  1.00  0.00    -0.263 N 
ATOM     11  C   UNL     1      -8.939   9.104  -4.051  1.00  0.00     0.273 C 
ATOM     12  O   UNL     1      -8.622   9.267  -5.214  1.00  0.00    -0.267 OA
ATOM     13  H   UNL     1      -8.345   8.389  -2.207  1.00  0.00     0.191 HD
BRANCH  11  14
ATOM     14  C   UNL     1     -10.268   9.537  -3.582  1.00  0.00     0.082 A 
ATOM     15  C   UNL     1     -13.000  10.043  -1.108  1.00  0.00     0.087 C 
ATOM     16  C   UNL     1     -12.046   9.942  -2.271  1.00  0.00     0.101 A 
ATOM     17  O   UNL     1     -12.295  10.363  -3.520  1.00  0.00    -0.466 OA
ATOM     18  C   UNL     1     -10.815   9.412  -2.223  1.00  0.00     0.059 A 
ATOM     19  C   UNL     1     -11.249  10.132  -4.319  1.00  0.00     0.113 A 
ATOM     20  C   UNL     1     -11.168  10.471  -5.785  1.00  0.00     0.088 C 
ENDBRANCH  11  14
ENDBRANCH   7  10
ENDBRANCH   5   6
BRANCH   5  21
ATOM     21  C   UNL     1      -4.757   6.058  -4.369  1.00  0.00     0.070 C 
BRANCH  21  22
ATOM     22  C   UNL     1      -3.404   5.706  -4.933  1.00  0.00    -0.045 A 
ATOM     23  C   UNL     1      -2.676   4.666  -4.386  1.00  0.00     0.004 A 
ATOM     24  C   UNL     1      -2.893   6.420  -6.001  1.00  0.00     0.004 A 
ATOM     25  C   UNL     1      -1.436   4.344  -4.903  1.00  0.00     0.000 A 
ATOM     26  C   UNL     1      -1.651   6.101  -6.515  1.00  0.00     0.000 A 
ATOM     27  C   UNL     1      -0.923   5.061  -5.968  1.00  0.00     0.000 A 
ENDBRANCH  21  22
ENDBRANCH   5  21
ENDBRANCH   1   5
BRANCH   2  28
ATOM     28  O   UNL     1      -1.818   5.954  -1.134  1.00  0.00    -0.449 OA
BRANCH  28  29
ATOM     29  C   UNL     1      -0.369   5.982  -1.218  1.00  0.00     0.248 C 
BRANCH  29  30
ATOM     30  C   UNL     1       0.227   5.323   0.027  1.00  0.00     0.088 C 
ATOM     31  C   UNL     1       1.731   5.452   0.014  1.00  0.00    -0.029 A 
ATOM     32  C   UNL     1      -0.064   3.843   0.022  1.00  0.00    -0.029 A 
ATOM     33  C   UNL     1       2.262   4.166   0.002  1.00  0.00    -0.014 A 
ATOM     34  C   UNL     1       2.566   6.550   0.011  1.00  0.00     0.005 A 
ATOM     35  C   UNL     1       1.157   3.175   0.008  1.00  0.00    -0.014 A 
ATOM     36  C   UNL     1      -1.245   3.132   0.029  1.00  0.00     0.005 A 
ATOM     37  C   UNL     1       3.648   3.998  -0.012  1.00  0.00     0.009 A 
ATOM     38  C   UNL     1       3.938   6.376  -0.003  1.00  0.00     0.000 A 
ATOM     39  C   UNL     1       1.174   1.779   0.000  1.00  0.00     0.009 A 
ATOM     40  C   UNL     1      -1.221   1.748   0.017  1.00  0.00     0.000 A 
ATOM     41  C   UNL     1       4.476   5.101  -0.015  1.00  0.00     0.001 A 
ATOM     42  C   UNL     1      -0.013   1.076   0.008  1.00  0.00     0.001 A 
ENDBRANCH  29  30
ENDBRANCH  28  29
ENDBRANCH   2  28
TORSDOF 9
