REMARK SMILES Cc1nn(-c2ccccc2)c(C)c1/C=C1\CCCC2=C1OC(N)=C(C#N)[C@@H]2c1c(C)nn(-c2ccccc2)c1C
REMARK SMILES IDX 14 1 15 2 16 3 17 4 18 5 19 6 20 7 21 8 22 9 24 10 27 11
REMARK SMILES IDX 13 12 1 13 2 14 3 15 4 16 11 17 12 18 5 19 10 20 6 21 9 22
REMARK SMILES IDX 7 23 8 24 28 25 39 26 29 27 32 28 40 29 31 30 30 31 33 32
REMARK SMILES IDX 38 33 34 34 37 35 35 36 36 37 23 38 25 41 26 42
REMARK H PARENT 23 39 23 40
REMARK Flexibility Score: inf
ROOT
ATOM      1  C   UNL     1      -8.089  -3.181  -1.887  1.00  0.00     0.019 C 
ATOM      2  C   UNL     1      -6.910  -2.994  -2.505  1.00  0.00    -0.004 C 
ATOM      3  C   UNL     1      -6.842  -2.336  -3.865  1.00  0.00     0.040 C 
ATOM      4  C   UNL     1      -5.812  -3.121  -4.691  1.00  0.00     0.009 C 
ATOM      5  C   UNL     1      -4.450  -3.009  -4.013  1.00  0.00     0.036 C 
ATOM      6  C   UNL     1      -4.511  -3.443  -2.571  1.00  0.00    -0.014 C 
ATOM      7  C   UNL     1      -5.647  -3.426  -1.874  1.00  0.00     0.132 C 
ATOM      8  O   UNL     1      -5.686  -3.800  -0.569  1.00  0.00    -0.440 OA
ATOM      9  C   UNL     1      -4.726  -4.594  -0.067  1.00  0.00     0.205 C 
ATOM     10  C   UNL     1      -3.516  -4.686  -0.674  1.00  0.00     0.101 C 
ATOM     11  C   UNL     1      -3.225  -3.898  -1.920  1.00  0.00     0.099 C 
ENDROOT
BRANCH   1  12
ATOM     12  C   UNL     1      -9.338  -2.743  -2.535  1.00  0.00     0.019 A 
ATOM     13  C   UNL     1      -8.627  -0.311  -3.125  1.00  0.00     0.069 C 
ATOM     14  C   UNL     1      -9.592  -1.469  -3.090  1.00  0.00     0.067 A 
ATOM     15  N   UNL     1     -10.806  -1.469  -3.572  1.00  0.00    -0.172 NA
ATOM     16  N   UNL     1     -11.384  -2.722  -3.342  1.00  0.00    -0.237 N 
ATOM     17  C   UNL     1     -10.480  -3.498  -2.706  1.00  0.00     0.049 A 
ATOM     18  C   UNL     1     -10.681  -4.925  -2.265  1.00  0.00     0.067 C 
BRANCH  16  19
ATOM     19  C   UNL     1     -12.681  -3.107  -3.709  1.00  0.00     0.065 A 
ATOM     20  C   UNL     1     -13.461  -3.847  -2.831  1.00  0.00     0.028 A 
ATOM     21  C   UNL     1     -13.189  -2.744  -4.949  1.00  0.00     0.028 A 
ATOM     22  C   UNL     1     -14.739  -4.224  -3.196  1.00  0.00     0.002 A 
ATOM     23  C   UNL     1     -14.466  -3.129  -5.310  1.00  0.00     0.002 A 
ATOM     24  C   UNL     1     -15.241  -3.866  -4.434  1.00  0.00     0.000 A 
ENDBRANCH  16  19
ENDBRANCH   1  12
BRANCH  11  25
ATOM     25  C   UNL     1      -2.394  -2.692  -1.563  1.00  0.00     0.009 A 
ATOM     26  C   UNL     1      -1.153  -2.417  -2.025  1.00  0.00     0.046 A 
ATOM     27  C   UNL     1      -2.773  -1.657  -0.701  1.00  0.00     0.064 A 
ATOM     28  N   UNL     1      -0.755  -1.251  -1.466  1.00  0.00    -0.238 N 
ATOM     29  C   UNL     1      -0.354  -3.259  -2.986  1.00  0.00     0.067 C 
ATOM     30  N   UNL     1      -1.792  -0.793  -0.642  1.00  0.00    -0.173 NA
ATOM     31  C   UNL     1      -4.086  -1.555   0.033  1.00  0.00     0.069 C 
BRANCH  28  32
ATOM     32  C   UNL     1       0.473  -0.611  -1.678  1.00  0.00     0.065 A 
ATOM     33  C   UNL     1       1.627  -1.362  -1.859  1.00  0.00     0.028 A 
ATOM     34  C   UNL     1       0.540   0.776  -1.708  1.00  0.00     0.028 A 
ATOM     35  C   UNL     1       2.837  -0.729  -2.067  1.00  0.00     0.002 A 
ATOM     36  C   UNL     1       1.752   1.403  -1.916  1.00  0.00     0.002 A 
ATOM     37  C   UNL     1       2.899   0.653  -2.096  1.00  0.00     0.000 A 
ENDBRANCH  28  32
ENDBRANCH  11  25
BRANCH   9  38
ATOM     38  N   UNL     1      -4.971  -5.321   1.071  1.00  0.00    -0.369 N 
ATOM     39  H   UNL     1      -5.887  -5.259   1.539  1.00  0.00     0.159 HD
ATOM     40  H   UNL     1      -4.237  -5.931   1.458  1.00  0.00     0.159 HD
ENDBRANCH   9  38
BRANCH  10  41
ATOM     41  C   UNL     1      -2.507  -5.539  -0.122  1.00  0.00     0.101 C 
ATOM     42  N   UNL     1      -1.706  -6.216   0.316  1.00  0.00    -0.193 NA
ENDBRANCH  10  41
TORSDOF 6
