REMARK SMILES C=CCn1c([S-])nc2cc(C(=O)NC[C@@H](C(C)C)[N@@H+]3CCc4ccccc4C3)ccc2c1=O
REMARK SMILES IDX 13 1 11 2 12 3 14 5 15 6 16 7 17 8 18 9 19 10 28 11 20 12
REMARK SMILES IDX 27 14 21 15 22 16 26 17 23 18 25 19 24 20 10 21 9 22 29 23
REMARK SMILES IDX 8 24 30 25 31 26 7 27 32 28 5 29 4 30 33 31 6 32 3 33 2 34
REMARK SMILES IDX 1 35
REMARK H PARENT 13 4 19 13
REMARK Flexibility Score: inf
ROOT
ATOM      1  N   UNL     1      -2.045  -9.000  -6.852  1.00  0.00    -0.346 N 
ATOM      2  C   UNL     1      -2.816  -7.950  -7.197  1.00  0.00     0.251 C 
ATOM      3  O   UNL     1      -2.365  -6.822  -7.149  1.00  0.00    -0.269 OA
ATOM      4  H   UNL     1      -2.427  -9.955  -6.893  1.00  0.00     0.164 HD
ENDROOT
BRANCH   1   5
ATOM      5  C   UNL     1      -0.662  -8.782  -6.419  1.00  0.00     0.181 C 
BRANCH   5   6
ATOM      6  C   UNL     1       0.024 -10.132  -6.204  1.00  0.00     0.206 C 
BRANCH   6   7
ATOM      7  C   UNL     1       0.208 -10.831  -7.553  1.00  0.00     0.043 C 
ATOM      8  C   UNL     1       1.001 -12.124  -7.353  1.00  0.00     0.014 C 
ATOM      9  C   UNL     1      -1.162 -11.160  -8.148  1.00  0.00     0.014 C 
ENDBRANCH   6   7
BRANCH   6  10
ATOM     10  N   UNL     1       1.336  -9.921  -5.579  1.00  0.00    -0.327 N 
ATOM     11  C   UNL     1       2.142  -8.975  -6.356  1.00  0.00     0.299 C 
ATOM     12  C   UNL     1       1.190  -9.447  -4.193  1.00  0.00     0.267 C 
ATOM     13  H   UNL     1       1.824 -10.828  -5.563  1.00  0.00     0.348 HD
ATOM     14  C   UNL     1       3.444  -8.689  -5.654  1.00  0.00     0.010 A 
ATOM     15  C   UNL     1       2.537  -9.596  -3.485  1.00  0.00     0.097 C 
ATOM     16  C   UNL     1       3.627  -8.972  -4.318  1.00  0.00    -0.034 A 
ATOM     17  C   UNL     1       4.479  -8.124  -6.386  1.00  0.00     0.010 A 
ATOM     18  C   UNL     1       4.841  -8.687  -3.711  1.00  0.00     0.004 A 
ATOM     19  C   UNL     1       5.688  -7.843  -5.782  1.00  0.00     0.001 A 
ATOM     20  C   UNL     1       5.869  -8.124  -4.440  1.00  0.00     0.000 A 
ENDBRANCH   6  10
ENDBRANCH   5   6
ENDBRANCH   1   5
BRANCH   2  21
ATOM     21  C   UNL     1      -4.214  -8.170  -7.635  1.00  0.00     0.041 A 
ATOM     22  C   UNL     1      -5.008  -7.083  -7.990  1.00  0.00     0.043 A 
ATOM     23  C   UNL     1      -4.729  -9.469  -7.689  1.00  0.00     0.015 A 
ATOM     24  C   UNL     1      -6.315  -7.294  -8.399  1.00  0.00     0.076 A 
ATOM     25  C   UNL     1      -6.027  -9.684  -8.095  1.00  0.00     0.017 A 
ATOM     26  C   UNL     1      -6.828  -8.601  -8.452  1.00  0.00     0.066 A 
ATOM     27  N   UNL     1      -7.140  -6.238  -8.762  1.00  0.00    -0.259 NA
ATOM     28  C   UNL     1      -8.225  -8.785  -8.893  1.00  0.00     0.260 A 
ATOM     29  C   UNL     1      -8.404  -6.460  -9.161  1.00  0.00    -0.012 A 
ATOM     30  N   UNL     1      -8.942  -7.689  -9.223  1.00  0.00    -0.312 N 
ATOM     31  O   UNL     1      -8.718  -9.894  -8.956  1.00  0.00    -0.269 OA
ATOM     32  S   UNL     1      -9.372  -5.119  -9.601  1.00  0.00    -0.742 S 
BRANCH  30  33
ATOM     33  C   UNL     1     -10.330  -7.844  -9.664  1.00  0.00     0.152 C 
BRANCH  33  34
ATOM     34  C   UNL     1     -11.246  -7.779  -8.469  1.00  0.00    -0.013 C 
ATOM     35  C   UNL     1     -12.229  -6.913  -8.443  1.00  0.00     0.006 C 
ENDBRANCH  33  34
ENDBRANCH  30  33
ENDBRANCH   2  21
TORSDOF 7
