REMARK SMILES N#C/C(=C\c1cc2ccccc2nc1N1CCOCC1)c1nc(O)c2c3c(sc2n1)CCCC3
REMARK SMILES IDX 4 1 3 2 5 3 9 4 8 5 10 6 7 7 11 8 12 9 6 10 13 11 14 12
REMARK SMILES IDX 15 13 20 14 16 15 19 16 17 17 18 18 2 19 1 20 21 21 30 22
REMARK SMILES IDX 22 23 29 24 23 25 25 26 28 27 26 28 27 29 34 30 31 31 33 32
REMARK SMILES IDX 32 33 24 34
REMARK H PARENT 24 35
REMARK Flexibility Score: inf
ROOT
ATOM      1  C   UNL     1       4.022   5.531   0.727  1.00  0.00     0.035 C 
ATOM      2  C   UNL     1       4.410   4.269   0.333  1.00  0.00     0.098 C 
ENDROOT
BRANCH   1   3
ATOM      3  C   UNL     1       4.887   6.680   0.456  1.00  0.00     0.019 A 
ATOM      4  C   UNL     1       9.197   8.698  -0.132  1.00  0.00     0.001 A 
ATOM      5  C   UNL     1       8.458   7.585   0.126  1.00  0.00     0.010 A 
ATOM      6  C   UNL     1       8.580   9.927  -0.357  1.00  0.00     0.002 A 
ATOM      7  C   UNL     1       7.054   7.672   0.165  1.00  0.00     0.001 A 
ATOM      8  C   UNL     1       7.224  10.048  -0.327  1.00  0.00     0.029 A 
ATOM      9  C   UNL     1       6.425   8.922  -0.064  1.00  0.00     0.073 A 
ATOM     10  C   UNL     1       6.273   6.535   0.429  1.00  0.00     0.022 A 
ATOM     11  N   UNL     1       5.092   9.035  -0.033  1.00  0.00    -0.230 NA
ATOM     12  C   UNL     1       4.313   8.002   0.204  1.00  0.00     0.136 A 
BRANCH  12  13
ATOM     13  N   UNL     1       2.941   8.168   0.220  1.00  0.00    -0.351 N 
ATOM     14  C   UNL     1       2.582   9.594   0.220  1.00  0.00     0.146 C 
ATOM     15  C   UNL     1       2.312   7.472  -0.912  1.00  0.00     0.146 C 
ATOM     16  C   UNL     1       1.060   9.732   0.298  1.00  0.00     0.181 C 
ATOM     17  C   UNL     1       0.792   7.631  -0.822  1.00  0.00     0.181 C 
ATOM     18  O   UNL     1       0.465   9.023  -0.792  1.00  0.00    -0.378 OA
ENDBRANCH  12  13
ENDBRANCH   1   3
BRANCH   2  19
ATOM     19  C   UNL     1       5.591   4.098  -0.458  1.00  0.00     0.103 C 
ATOM     20  N   UNL     1       6.529   3.962  -1.085  1.00  0.00    -0.192 NA
ENDBRANCH   2  19
BRANCH   2  21
ATOM     21  C   UNL     1       3.610   3.098   0.724  1.00  0.00     0.175 A 
ATOM     22  N   UNL     1       2.520   3.287   1.457  1.00  0.00    -0.216 NA
ATOM     23  N   UNL     1       4.020   1.859   0.319  1.00  0.00    -0.192 NA
ATOM     24  C   UNL     1       1.819   2.214   1.794  1.00  0.00     0.131 A 
ATOM     25  C   UNL     1       3.350   0.724   0.630  1.00  0.00     0.223 A 
ATOM     26  C   UNL     1       2.165   0.894   1.422  1.00  0.00     0.077 A 
ATOM     27  S   UNL     1       0.341   2.001   2.736  1.00  0.00    -0.120 S 
ATOM     28  C   UNL     1       1.276  -0.155   1.887  1.00  0.00    -0.019 A 
ATOM     29  C   UNL     1       0.210   0.234   2.626  1.00  0.00     0.011 A 
ATOM     30  C   UNL     1       1.505  -1.632   1.575  1.00  0.00     0.037 C 
ATOM     31  C   UNL     1      -0.850  -0.641   3.220  1.00  0.00     0.047 C 
ATOM     32  C   UNL     1       0.700  -2.478   2.562  1.00  0.00     0.005 C 
ATOM     33  C   UNL     1      -0.763  -2.025   2.562  1.00  0.00     0.006 C 
BRANCH  25  34
ATOM     34  O   UNL     1       3.730  -0.373   0.261  1.00  0.00    -0.493 OA
ATOM     35  H   UNL     1       4.658  -0.431   0.600  1.00  0.00     0.295 HD
ENDBRANCH  25  34
ENDBRANCH   2  21
TORSDOF 5
