REMARK SMILES Cc1ccc(S(=O)(=O)NCCc2c(C)[nH]c3ccc(OC(F)(F)Cl)cc23)c(C)c1C
REMARK SMILES IDX 10 1 9 2 6 4 7 5 8 6 5 7 1 8 2 9 29 10 3 11 27 12 30 13 4 14
REMARK SMILES IDX 28 15 11 16 12 17 26 18 13 19 16 20 25 21 15 22 14 23 17 24
REMARK SMILES IDX 19 25 18 27 20 28 21 29 22 30 23 31 24 32
REMARK H PARENT 9 3 15 26
REMARK Flexibility Score: inf
ROOT
ATOM      1  C   UNL     1      -1.301   1.999  -1.977  1.00  0.00     0.103 C 
ENDROOT
BRANCH   1   2
ATOM      2  N   UNL     1      -2.594   2.324  -1.370  1.00  0.00    -0.211 NA
ATOM      3  H   UNL     1      -3.183   3.065  -1.777  1.00  0.00     0.141 HD
BRANCH   2   4
ATOM      4  S   UNL     1      -3.110   1.499  -0.030  1.00  0.00     0.240 S 
ATOM      5  O   UNL     1      -2.915   0.118  -0.303  1.00  0.00    -0.207 OA
ATOM      6  O   UNL     1      -4.380   2.036   0.313  1.00  0.00    -0.207 OA
BRANCH   4   7
ATOM      7  C   UNL     1      -2.017   1.912   1.288  1.00  0.00     0.085 A 
ATOM      8  C   UNL     1       0.625   2.910   4.493  1.00  0.00     0.044 C 
ATOM      9  C   UNL     1      -0.305   2.558   3.361  1.00  0.00    -0.048 A 
ATOM     10  C   UNL     1      -1.076   3.541   2.770  1.00  0.00    -0.044 A 
ATOM     11  C   UNL     1      -0.387   1.252   2.914  1.00  0.00     0.005 A 
ATOM     12  C   UNL     1      -1.930   3.218   1.732  1.00  0.00    -0.028 A 
ATOM     13  C   UNL     1      -0.987   4.964   3.257  1.00  0.00     0.045 C 
ATOM     14  C   UNL     1      -1.241   0.930   1.877  1.00  0.00     0.022 A 
ATOM     15  C   UNL     1      -2.771   4.290   1.087  1.00  0.00     0.046 C 
ENDBRANCH   4   7
ENDBRANCH   2   4
ENDBRANCH   1   2
BRANCH   1  16
ATOM     16  C   UNL     1      -1.221   2.624  -3.372  1.00  0.00     0.054 C 
BRANCH  16  17
ATOM     17  C   UNL     1       0.109   2.290  -3.996  1.00  0.00    -0.018 A 
ATOM     18  C   UNL     1       0.414   1.119  -4.822  1.00  0.00     0.007 A 
ATOM     19  C   UNL     1       1.237   3.012  -3.906  1.00  0.00     0.016 A 
ATOM     20  C   UNL     1       1.771   1.234  -5.174  1.00  0.00     0.046 A 
ATOM     21  C   UNL     1      -0.333   0.027  -5.269  1.00  0.00     0.057 A 
ATOM     22  N   UNL     1       2.243   2.395  -4.598  1.00  0.00    -0.358 N 
ATOM     23  C   UNL     1       1.376   4.309  -3.151  1.00  0.00     0.064 C 
ATOM     24  C   UNL     1       2.358   0.255  -5.969  1.00  0.00     0.030 A 
ATOM     25  C   UNL     1       0.269  -0.934  -6.057  1.00  0.00     0.128 A 
ATOM     26  H   UNL     1       3.208   2.745  -4.677  1.00  0.00     0.166 HD
ATOM     27  C   UNL     1       1.612  -0.817  -6.404  1.00  0.00     0.049 A 
BRANCH  25  28
ATOM     28  O   UNL     1      -0.454  -2.000  -6.495  1.00  0.00    -0.420 OA
BRANCH  28  29
ATOM     29  C   UNL     1       0.230  -2.957  -7.306  1.00  0.00     0.487 C 
ATOM     30  F   UNL     1       0.713  -2.331  -8.460  1.00  0.00    -0.149 F 
ATOM     31  F   UNL     1       1.300  -3.499  -6.587  1.00  0.00    -0.149 F 
ATOM     32  Cl  UNL     1      -0.910  -4.275  -7.771  1.00  0.00     0.002 Cl
ENDBRANCH  28  29
ENDBRANCH  25  28
ENDBRANCH  16  17
ENDBRANCH   1  16
TORSDOF 7
