REMARK SMILES Cn1ccnc1[C@H](N/C=C1/C(=O)N(c2ccccn2)C(=O)c2ccccc21)c1ccc(Cl)cc1
REMARK SMILES IDX 8 1 7 3 6 4 1 5 2 6 3 7 5 8 4 9 28 10 34 11 29 12 33 13
REMARK SMILES IDX 30 14 31 15 32 16 9 17 10 18 11 19 27 20 13 21 12 22 22 23
REMARK SMILES IDX 26 24 20 25 23 26 25 27 21 28 24 29 14 30 19 31 15 32 18 33
REMARK SMILES IDX 16 34 17 35
REMARK H PARENT 8 2
REMARK Flexibility Score: inf
ROOT
ATOM      1  N   UNL     1      -0.971  -1.968   0.987  1.00  0.00    -0.377 N 
ATOM      2  H   UNL     1      -0.543  -2.857   0.691  1.00  0.00     0.161 HD
ENDROOT
BRANCH   1   3
ATOM      3  C   UNL     1      -1.205  -0.905   0.006  1.00  0.00     0.176 C 
BRANCH   3   4
ATOM      4  C   UNL     1      -0.048   0.061   0.026  1.00  0.00     0.135 A 
ATOM      5  C   UNL     1      -1.386   2.188  -0.001  1.00  0.00     0.151 C 
ATOM      6  N   UNL     1      -0.146   1.407   0.025  1.00  0.00    -0.336 N 
ATOM      7  C   UNL     1       1.128   1.907   0.045  1.00  0.00     0.107 A 
ATOM      8  N   UNL     1       1.215  -0.267   0.046  1.00  0.00    -0.239 NA
ATOM      9  C   UNL     1       1.961   0.849   0.059  1.00  0.00     0.131 A 
ENDBRANCH   3   4
BRANCH   3  10
ATOM     10  C   UNL     1      -1.332  -1.509  -1.369  1.00  0.00    -0.018 A 
ATOM     11  C   UNL     1      -2.278  -1.023  -2.252  1.00  0.00     0.008 A 
ATOM     12  C   UNL     1      -0.499  -2.545  -1.748  1.00  0.00     0.008 A 
ATOM     13  C   UNL     1      -2.395  -1.576  -3.513  1.00  0.00     0.021 A 
ATOM     14  C   UNL     1      -0.619  -3.103  -3.007  1.00  0.00     0.021 A 
ATOM     15  C   UNL     1      -1.565  -2.617  -3.891  1.00  0.00     0.041 A 
ATOM     16  Cl  UNL     1      -1.712  -3.313  -5.475  1.00  0.00    -0.084 Cl
ENDBRANCH   3  10
ENDBRANCH   1   3
BRANCH   1  17
ATOM     17  C   UNL     1      -1.318  -1.781   2.287  1.00  0.00     0.093 C 
ATOM     18  C   UNL     1      -1.231  -2.826   3.180  1.00  0.00     0.064 C 
ATOM     19  C   UNL     1      -1.004  -2.583   4.609  1.00  0.00     0.268 C 
ATOM     20  C   UNL     1      -1.359  -4.227   2.726  1.00  0.00     0.001 A 
ATOM     21  N   UNL     1      -0.927  -3.606   5.474  1.00  0.00    -0.225 N 
ATOM     22  O   UNL     1      -0.889  -1.440   5.014  1.00  0.00    -0.268 OA
ATOM     23  C   UNL     1      -1.261  -5.251   3.691  1.00  0.00     0.049 A 
ATOM     24  C   UNL     1      -1.569  -4.548   1.390  1.00  0.00     0.010 A 
ATOM     25  C   UNL     1      -1.038  -4.890   5.097  1.00  0.00     0.267 C 
ATOM     26  C   UNL     1      -1.376  -6.583   3.292  1.00  0.00     0.014 A 
ATOM     27  C   UNL     1      -1.680  -5.871   1.017  1.00  0.00     0.001 A 
ATOM     28  O   UNL     1      -0.952  -5.769   5.934  1.00  0.00    -0.268 OA
ATOM     29  C   UNL     1      -1.585  -6.881   1.963  1.00  0.00     0.001 A 
BRANCH  21  30
ATOM     30  C   UNL     1      -0.716  -3.324   6.826  1.00  0.00     0.142 A 
ATOM     31  N   UNL     1       0.516  -3.137   7.271  1.00  0.00    -0.238 NA
ATOM     32  C   UNL     1      -1.802  -3.235   7.689  1.00  0.00     0.048 A 
ATOM     33  C   UNL     1       0.760  -2.868   8.540  1.00  0.00     0.113 A 
ATOM     34  C   UNL     1      -1.578  -2.959   9.026  1.00  0.00     0.005 A 
ATOM     35  C   UNL     1      -0.271  -2.770   9.454  1.00  0.00     0.020 A 
ENDBRANCH  21  30
ENDBRANCH   1  17
TORSDOF 5
