REMARK SMILES O=c1cc(C[NH2+]CC2(N3CCSCC3)CCCC2)c2cc3c(cc2o1)CCC3
REMARK SMILES IDX 6 1 5 4 4 5 20 6 19 7 21 8 24 9 28 10 22 11 23 12 25 13 3 14
REMARK SMILES IDX 27 15 26 16 2 17 1 18 7 19 8 20 18 21 15 22 17 23 16 24 9 25
REMARK SMILES IDX 14 26 10 27 13 28 11 29 12 30
REMARK H PARENT 6 2 6 3
REMARK Flexibility Score: inf
ROOT
ATOM      1  N   UNL     1      -2.678  -0.939   1.599  1.00  0.00    -0.341 N 
ATOM      2  H   UNL     1      -3.461  -0.821   2.257  1.00  0.00     0.346 HD
ATOM      3  H   UNL     1      -1.851  -0.453   1.976  1.00  0.00     0.346 HD
ENDROOT
BRANCH   1   4
ATOM      4  C   UNL     1      -3.038  -0.348   0.303  1.00  0.00     0.298 C 
BRANCH   4   5
ATOM      5  C   UNL     1      -3.341   1.117   0.486  1.00  0.00     0.024 A 
ATOM      6  C   UNL     1      -0.920   1.716   0.510  1.00  0.00     0.016 A 
ATOM      7  C   UNL     1      -2.260   2.104   0.576  1.00  0.00     0.027 A 
ATOM      8  C   UNL     1       0.071   2.657   0.605  1.00  0.00    -0.044 A 
ATOM      9  C   UNL     1      -2.589   3.460   0.753  1.00  0.00     0.139 A 
ATOM     10  C   UNL     1       1.576   2.494   0.557  1.00  0.00     0.036 C 
ATOM     11  C   UNL     1      -0.249   3.997   0.771  1.00  0.00    -0.041 A 
ATOM     12  C   UNL     1      -1.571   4.397   0.845  1.00  0.00     0.052 A 
ATOM     13  O   UNL     1      -3.884   3.834   0.824  1.00  0.00    -0.423 OA
ATOM     14  C   UNL     1      -4.621   1.560   0.565  1.00  0.00     0.104 A 
ATOM     15  C   UNL     1       2.143   3.801   1.148  1.00  0.00     0.010 C 
ATOM     16  C   UNL     1       1.022   4.818   0.845  1.00  0.00     0.036 C 
ATOM     17  C   UNL     1      -4.878   2.937   0.736  1.00  0.00     0.336 A 
ATOM     18  O   UNL     1      -6.032   3.321   0.806  1.00  0.00    -0.246 OA
ENDBRANCH   4   5
ENDBRANCH   1   4
BRANCH   1  19
ATOM     19  C   UNL     1      -2.375  -2.370   1.459  1.00  0.00     0.283 C 
BRANCH  19  20
ATOM     20  C   UNL     1      -1.942  -2.934   2.813  1.00  0.00     0.070 C 
ATOM     21  C   UNL     1      -3.041  -2.691   3.862  1.00  0.00     0.028 C 
ATOM     22  C   UNL     1      -1.757  -4.463   2.714  1.00  0.00     0.028 C 
ATOM     23  C   UNL     1      -3.487  -4.079   4.364  1.00  0.00     0.002 C 
ATOM     24  C   UNL     1      -2.273  -4.996   4.075  1.00  0.00     0.002 C 
BRANCH  20  25
ATOM     25  N   UNL     1      -0.687  -2.303   3.243  1.00  0.00    -0.291 NA
ATOM     26  C   UNL     1       0.374  -2.518   2.257  1.00  0.00     0.096 C 
ATOM     27  C   UNL     1      -0.891  -0.885   3.551  1.00  0.00     0.096 C 
ATOM     28  C   UNL     1       1.742  -2.273   2.904  1.00  0.00     0.085 C 
ATOM     29  C   UNL     1       0.266  -0.368   4.413  1.00  0.00     0.085 C 
ATOM     30  S   UNL     1       1.809  -0.542   3.463  1.00  0.00    -0.159 SA
ENDBRANCH  20  25
ENDBRANCH  19  20
ENDBRANCH   1  19
TORSDOF 5
