REMARK SMILES O=C(CCc1ncc(-c2ccc(Cl)cc2Cl)o1)N[C@H](c1ccccc1)c1ccc2[nH]cnc2c1
REMARK SMILES IDX 3 1 2 2 18 3 1 5 19 6 20 7 23 8 24 9 22 10 25 11 21 12 26 13
REMARK SMILES IDX 34 14 27 15 33 16 28 17 29 18 32 19 30 20 31 21 4 23 5 24
REMARK SMILES IDX 17 25 6 26 8 27 7 28 9 29 15 30 10 31 14 32 16 33 11 34
REMARK SMILES IDX 12 35 13 36
REMARK H PARENT 18 4 30 22
REMARK Flexibility Score: inf
ROOT
ATOM      1  C   UNL     1      -1.105   9.761  -2.300  1.00  0.00     0.110 C 
ENDROOT
BRANCH   1   2
ATOM      2  C   UNL     1      -1.751   8.753  -1.385  1.00  0.00     0.221 C 
ATOM      3  N   UNL     1      -1.012   7.768  -0.838  1.00  0.00    -0.345 N 
ATOM      4  H   UNL     1      -0.005   7.705  -1.044  1.00  0.00     0.164 HD
ATOM      5  O   UNL     1      -2.937   8.827  -1.142  1.00  0.00    -0.275 OA
BRANCH   3   6
ATOM      6  C   UNL     1      -1.640   6.788   0.051  1.00  0.00     0.143 C 
BRANCH   6   7
ATOM      7  C   UNL     1      -1.685   7.337   1.454  1.00  0.00    -0.021 A 
ATOM      8  C   UNL     1      -1.766   8.345   4.027  1.00  0.00     0.000 A 
ATOM      9  C   UNL     1      -0.649   8.550   3.239  1.00  0.00     0.000 A 
ATOM     10  C   UNL     1      -2.843   7.636   3.528  1.00  0.00     0.000 A 
ATOM     11  C   UNL     1      -0.606   8.043   1.954  1.00  0.00     0.006 A 
ATOM     12  C   UNL     1      -2.802   7.131   2.241  1.00  0.00     0.006 A 
ENDBRANCH   6   7
BRANCH   6  13
ATOM     13  C   UNL     1      -0.840   5.511   0.037  1.00  0.00    -0.019 A 
ATOM     14  C   UNL     1      -1.486   4.308   0.037  1.00  0.00     0.036 A 
ATOM     15  C   UNL     1       0.547   5.570   0.025  1.00  0.00     0.008 A 
ATOM     16  C   UNL     1      -0.748   3.121   0.025  1.00  0.00     0.089 A 
ATOM     17  C   UNL     1       1.295   4.412   0.013  1.00  0.00     0.029 A 
ATOM     18  C   UNL     1       0.655   3.180   0.012  1.00  0.00     0.065 A 
ATOM     19  N   UNL     1      -1.089   1.807   0.017  1.00  0.00    -0.237 NA
ATOM     20  N   UNL     1       1.092   1.870   0.002  1.00  0.00    -0.345 N 
ATOM     21  C   UNL     1      -0.013   1.076   0.008  1.00  0.00     0.197 A 
ATOM     22  H   UNL     1       2.072   1.553  -0.009  1.00  0.00     0.168 HD
ENDBRANCH   6  13
ENDBRANCH   3   6
ENDBRANCH   1   2
BRANCH   1  23
ATOM     23  C   UNL     1      -2.157  10.762  -2.781  1.00  0.00     0.107 C 
BRANCH  23  24
ATOM     24  C   UNL     1      -1.511  11.771  -3.695  1.00  0.00     0.195 A 
ATOM     25  O   UNL     1      -0.966  12.933  -3.310  1.00  0.00    -0.441 OA
ATOM     26  N   UNL     1      -1.397  11.655  -4.989  1.00  0.00    -0.222 NA
ATOM     27  C   UNL     1      -0.490  13.550  -4.414  1.00  0.00     0.156 A 
ATOM     28  C   UNL     1      -0.769  12.740  -5.468  1.00  0.00     0.162 A 
BRANCH  27  29
ATOM     29  C   UNL     1       0.196  14.857  -4.466  1.00  0.00     0.038 A 
ATOM     30  C   UNL     1       1.406  14.988  -5.151  1.00  0.00     0.053 A 
ATOM     31  C   UNL     1      -0.365  15.969  -3.835  1.00  0.00     0.015 A 
ATOM     32  C   UNL     1       2.042  16.212  -5.196  1.00  0.00     0.041 A 
ATOM     33  Cl  UNL     1       2.109  13.613  -5.945  1.00  0.00    -0.083 Cl
ATOM     34  C   UNL     1       0.284  17.186  -3.881  1.00  0.00     0.021 A 
ATOM     35  C   UNL     1       1.483  17.309  -4.563  1.00  0.00     0.042 A 
ATOM     36  Cl  UNL     1       2.288  18.846  -4.623  1.00  0.00    -0.084 Cl
ENDBRANCH  27  29
ENDBRANCH  23  24
ENDBRANCH   1  23
TORSDOF 7
