REMARK SMILES Cc1ccc(-c2nc(S[C@@H](C)C(=O)N3CCC[C@H](C(N)=O)C3)[nH]c2-c2ccc(C)cc2)cc1
REMARK SMILES IDX 10 1 11 2 9 3 8 4 24 5 23 6 6 7 7 9 25 10 29 11 28 12 30 13
REMARK SMILES IDX 27 14 31 15 26 16 5 17 32 18 4 19 33 20 3 21 2 22 1 23 12 24
REMARK SMILES IDX 13 25 14 26 22 27 15 28 18 29 16 30 17 31 19 32 21 33 20 34
REMARK H PARENT 23 8 20 35 20 36
REMARK Flexibility Score: inf
ROOT
ATOM      1  C   UNL     1      -1.191   3.643   0.028  1.00  0.00     0.141 C 
ATOM      2  C   UNL     1      -0.935   4.146   1.450  1.00  0.00     0.030 C 
ENDROOT
BRANCH   1   3
ATOM      3  S   UNL     1      -2.799   4.245  -0.545  1.00  0.00    -0.075 SA
BRANCH   3   4
ATOM      4  C   UNL     1      -2.481   5.978  -0.581  1.00  0.00     0.167 A 
ATOM      5  C   UNL     1      -2.735   8.157  -0.839  1.00  0.00     0.074 A 
ATOM      6  N   UNL     1      -3.374   6.936  -0.955  1.00  0.00    -0.332 N 
ATOM      7  C   UNL     1      -1.454   7.885  -0.400  1.00  0.00     0.097 A 
ATOM      8  H   UNL     1      -4.343   6.780  -1.266  1.00  0.00     0.169 HD
ATOM      9  N   UNL     1      -1.345   6.549  -0.257  1.00  0.00    -0.222 NA
BRANCH   5  10
ATOM     10  C   UNL     1      -3.307   9.485  -1.131  1.00  0.00     0.000 A 
ATOM     11  C   UNL     1      -4.963  13.336  -1.979  1.00  0.00     0.044 C 
ATOM     12  C   UNL     1      -4.380  11.979  -1.681  1.00  0.00    -0.051 A 
ATOM     13  C   UNL     1      -3.638  11.787  -0.528  1.00  0.00     0.004 A 
ATOM     14  C   UNL     1      -4.588  10.931  -2.560  1.00  0.00     0.004 A 
ATOM     15  C   UNL     1      -3.105  10.547  -0.246  1.00  0.00     0.010 A 
ATOM     16  C   UNL     1      -4.057   9.687  -2.293  1.00  0.00     0.010 A 
ENDBRANCH   5  10
BRANCH   7  17
ATOM     17  C   UNL     1      -0.392   8.882  -0.135  1.00  0.00     0.002 A 
ATOM     18  C   UNL     1       0.515   8.679   0.906  1.00  0.00     0.011 A 
ATOM     19  C   UNL     1      -0.289  10.024  -0.928  1.00  0.00     0.011 A 
ATOM     20  C   UNL     1       1.503   9.611   1.148  1.00  0.00     0.004 A 
ATOM     21  C   UNL     1       0.700  10.952  -0.673  1.00  0.00     0.004 A 
ATOM     22  C   UNL     1       1.596  10.745   0.361  1.00  0.00    -0.051 A 
ATOM     23  C   UNL     1       2.678  11.759   0.630  1.00  0.00     0.044 C 
ENDBRANCH   7  17
ENDBRANCH   3   4
ENDBRANCH   1   3
BRANCH   1  24
ATOM     24  C   UNL     1      -1.187   2.136   0.019  1.00  0.00     0.235 C 
ATOM     25  O   UNL     1      -2.236   1.527   0.021  1.00  0.00    -0.274 OA
BRANCH  24  26
ATOM     26  N   UNL     1      -0.018   1.465   0.010  1.00  0.00    -0.341 N 
ATOM     27  C   UNL     1       0.002  -0.004   0.002  1.00  0.00     0.133 C 
ATOM     28  C   UNL     1       1.261   2.189   0.002  1.00  0.00     0.119 C 
ATOM     29  C   UNL     1       0.880  -0.492   1.159  1.00  0.00     0.098 C 
ATOM     30  C   UNL     1       2.125   1.677   1.158  1.00  0.00     0.022 C 
ATOM     31  C   UNL     1       2.263   0.156   1.052  1.00  0.00     0.017 C 
BRANCH  29  32
ATOM     32  C   UNL     1       1.020  -1.990   1.087  1.00  0.00     0.222 C 
ATOM     33  O   UNL     1       0.473  -2.609   0.199  1.00  0.00    -0.275 OA
ATOM     34  N   UNL     1       1.754  -2.644   2.009  1.00  0.00    -0.369 N 
ATOM     35  H   UNL     1       2.220  -2.119   2.763  1.00  0.00     0.159 HD
ATOM     36  H   UNL     1       1.850  -3.668   1.960  1.00  0.00     0.159 HD
ENDBRANCH  29  32
ENDBRANCH  24  26
ENDBRANCH   1  24
TORSDOF 7
