REMARK SMILES Cc1cc(O)cc(O)c1/C=N\NC(=O)[C@H]1COc2cc3ccccc3cc2O1
REMARK SMILES IDX 10 1 11 2 9 3 1 4 2 5 3 6 7 7 4 8 6 9 8 10 5 12 12 14 13 15
REMARK SMILES IDX 14 17 15 18 28 19 16 20 27 21 17 22 18 23 26 24 19 25 25 26
REMARK SMILES IDX 20 27 24 28 21 29 23 30 22 31
REMARK H PARENT 8 11 5 13 12 16
REMARK Flexibility Score: inf
ROOT
ATOM      1  C   UNL     1       1.458   1.589   2.446  1.00  0.00     0.145 C 
ATOM      2  N   UNL     1       2.146   1.897   3.504  1.00  0.00    -0.180 NA
ENDROOT
BRANCH   1   3
ATOM      3  C   UNL     1       0.011   1.858   2.406  1.00  0.00     0.040 A 
ATOM      4  C   UNL     1      -0.377  -0.575   1.898  1.00  0.00     0.045 C 
ATOM      5  C   UNL     1      -0.888   0.822   2.142  1.00  0.00    -0.035 A 
ATOM      6  C   UNL     1      -2.241   1.078   2.099  1.00  0.00     0.050 A 
ATOM      7  C   UNL     1      -0.471   3.156   2.631  1.00  0.00     0.128 A 
ATOM      8  C   UNL     1      -2.717   2.364   2.328  1.00  0.00     0.119 A 
ATOM      9  C   UNL     1      -1.832   3.400   2.591  1.00  0.00     0.093 A 
BRANCH   7  10
ATOM     10  O   UNL     1       0.396   4.169   2.888  1.00  0.00    -0.507 OA
ATOM     11  H   UNL     1       0.100   4.543   3.756  1.00  0.00     0.293 HD
ENDBRANCH   7  10
BRANCH   8  12
ATOM     12  O   UNL     1      -4.052   2.607   2.290  1.00  0.00    -0.508 OA
ATOM     13  H   UNL     1      -4.445   1.985   2.953  1.00  0.00     0.293 HD
ENDBRANCH   8  12
ENDBRANCH   1   3
BRANCH   2  14
ATOM     14  N   UNL     1       1.493   2.352   4.657  1.00  0.00    -0.244 N 
ATOM     15  C   UNL     1       2.211   2.774   5.716  1.00  0.00     0.284 C 
ATOM     16  H   UNL     1       0.464   2.365   4.694  1.00  0.00     0.193 HD
ATOM     17  O   UNL     1       3.424   2.758   5.672  1.00  0.00    -0.269 OA
BRANCH  15  18
ATOM     18  C   UNL     1       1.508   3.264   6.956  1.00  0.00     0.301 C 
ATOM     19  O   UNL     1       2.472   3.750   7.896  1.00  0.00    -0.473 OA
ATOM     20  C   UNL     1       0.741   2.106   7.608  1.00  0.00     0.285 C 
ATOM     21  C   UNL     1       2.034   3.958   9.169  1.00  0.00     0.163 A 
ATOM     22  O   UNL     1       0.090   2.604   8.781  1.00  0.00    -0.485 OA
ATOM     23  C   UNL     1       0.838   3.378   9.616  1.00  0.00     0.162 A 
ATOM     24  C   UNL     1       2.783   4.741  10.003  1.00  0.00     0.059 A 
ATOM     25  C   UNL     1       0.399   3.581  10.894  1.00  0.00     0.059 A 
ATOM     26  C   UNL     1       2.356   4.969  11.321  1.00  0.00    -0.014 A 
ATOM     27  C   UNL     1       1.148   4.381  11.773  1.00  0.00    -0.014 A 
ATOM     28  C   UNL     1       3.103   5.770  12.201  1.00  0.00     0.009 A 
ATOM     29  C   UNL     1       0.722   4.610  13.093  1.00  0.00     0.009 A 
ATOM     30  C   UNL     1       2.659   5.970  13.473  1.00  0.00     0.001 A 
ATOM     31  C   UNL     1       1.472   5.392  13.917  1.00  0.00     0.001 A 
ENDBRANCH  15  18
ENDBRANCH   2  14
TORSDOF 5
