REMARK SMILES O=C(NCc1ccc(CN2CCc3ccccc32)cc1)NNC(=O)c1ccc(COc2ccccc2)o1
REMARK SMILES IDX 21 1 2 2 1 3 3 4 22 7 23 8 24 9 25 11 28 12 37 13 27 14
REMARK SMILES IDX 26 15 29 16 30 17 31 18 34 19 35 20 33 21 36 22 32 23 4 24
REMARK SMILES IDX 5 25 20 26 6 27 19 28 7 29 8 30 9 31 10 32 18 33 11 34 13 35
REMARK SMILES IDX 17 36 12 37 14 38 16 39 15 40
REMARK H PARENT 21 5 3 6 22 10
REMARK Flexibility Score: inf
ROOT
ATOM      1  N   UNL     1       1.441   6.890  -1.649  1.00  0.00    -0.249 N 
ATOM      2  C   UNL     1       0.862   8.084  -1.415  1.00  0.00     0.333 C 
ATOM      3  O   UNL     1       1.530   9.100  -1.440  1.00  0.00    -0.247 OA
ATOM      4  N   UNL     1      -0.459   8.153  -1.154  1.00  0.00    -0.333 N 
ATOM      5  H   UNL     1       2.450   6.837  -1.849  1.00  0.00     0.193 HD
ATOM      6  H   UNL     1      -1.025   7.293  -1.133  1.00  0.00     0.165 HD
ENDROOT
BRANCH   1   7
ATOM      7  N   UNL     1       0.670   5.720  -1.620  1.00  0.00    -0.259 N 
ATOM      8  C   UNL     1       1.250   4.526  -1.854  1.00  0.00     0.305 C 
ATOM      9  O   UNL     1       2.442   4.463  -2.090  1.00  0.00    -0.264 OA
ATOM     10  H   UNL     1      -0.339   5.773  -1.420  1.00  0.00     0.191 HD
BRANCH   8  11
ATOM     11  C   UNL     1       0.443   3.301  -1.824  1.00  0.00     0.193 A 
ATOM     12  C   UNL     1      -1.276   1.952  -1.635  1.00  0.00     0.142 A 
ATOM     13  O   UNL     1      -0.881   3.230  -1.575  1.00  0.00    -0.452 OA
ATOM     14  C   UNL     1      -0.205   1.178  -1.915  1.00  0.00     0.050 A 
ATOM     15  C   UNL     1       0.901   2.034  -2.042  1.00  0.00     0.057 A 
BRANCH  12  16
ATOM     16  C   UNL     1      -2.684   1.458  -1.421  1.00  0.00     0.304 C 
BRANCH  16  17
ATOM     17  O   UNL     1      -2.882   1.167  -0.036  1.00  0.00    -0.486 OA
BRANCH  17  18
ATOM     18  C   UNL     1      -4.107   0.708   0.329  1.00  0.00     0.119 A 
ATOM     19  C   UNL     1      -6.602  -0.228   1.072  1.00  0.00     0.000 A 
ATOM     20  C   UNL     1      -6.344   0.072  -0.252  1.00  0.00     0.004 A 
ATOM     21  C   UNL     1      -5.615  -0.062   2.026  1.00  0.00     0.004 A 
ATOM     22  C   UNL     1      -5.101   0.545  -0.625  1.00  0.00     0.046 A 
ATOM     23  C   UNL     1      -4.369   0.405   1.658  1.00  0.00     0.046 A 
ENDBRANCH  17  18
ENDBRANCH  16  17
ENDBRANCH  12  16
ENDBRANCH   8  11
ENDBRANCH   1   7
BRANCH   4  24
ATOM     24  C   UNL     1      -1.088   9.451  -0.899  1.00  0.00     0.153 C 
BRANCH  24  25
ATOM     25  C   UNL     1      -2.559   9.254  -0.636  1.00  0.00    -0.029 A 
ATOM     26  C   UNL     1      -3.008   9.043   0.654  1.00  0.00     0.006 A 
ATOM     27  C   UNL     1      -3.459   9.288  -1.684  1.00  0.00     0.006 A 
ATOM     28  C   UNL     1      -4.357   8.862   0.896  1.00  0.00     0.006 A 
ATOM     29  C   UNL     1      -4.808   9.103  -1.443  1.00  0.00     0.006 A 
ATOM     30  C   UNL     1      -5.257   8.891  -0.153  1.00  0.00    -0.029 A 
BRANCH  30  31
ATOM     31  C   UNL     1      -6.727   8.693   0.110  1.00  0.00     0.152 C 
BRANCH  31  32
ATOM     32  N   UNL     1      -7.381  10.001   0.245  1.00  0.00    -0.367 N 
ATOM     33  C   UNL     1      -8.768   9.858   0.373  1.00  0.00     0.040 A 
ATOM     34  C   UNL     1      -6.886  10.721   1.438  1.00  0.00     0.122 C 
ATOM     35  C   UNL     1      -9.276  10.749   1.311  1.00  0.00    -0.023 A 
ATOM     36  C   UNL     1      -9.643   8.992  -0.281  1.00  0.00     0.026 A 
ATOM     37  C   UNL     1      -8.117  11.553   1.866  1.00  0.00     0.059 C 
ATOM     38  C   UNL     1     -10.626  10.781   1.587  1.00  0.00     0.006 A 
ATOM     39  C   UNL     1     -10.993   9.026   0.001  1.00  0.00     0.002 A 
ATOM     40  C   UNL     1     -11.488   9.920   0.932  1.00  0.00     0.000 A 
ENDBRANCH  31  32
ENDBRANCH  30  31
ENDBRANCH  24  25
ENDBRANCH   4  24
TORSDOF 9
