REMARK SMILES Nc1ccccc1S[C@@H](/C=C\NNC1=N[C@@H](c2ccccc2)C(c2ccccc2)=NN1)c1ccccc1
REMARK SMILES IDX 11 1 10 2 12 3 13 5 16 6 15 7 23 8 14 9 30 10 31 11 17 14
REMARK SMILES IDX 20 15 21 16 19 17 22 18 18 19 24 20 29 21 25 22 28 23 26 24
REMARK SMILES IDX 27 25 9 26 32 27 37 28 33 29 36 30 34 31 35 32 8 33 7 34
REMARK SMILES IDX 2 35 6 36 3 37 5 38 4 39 1 40
REMARK H PARENT 12 4 31 12 13 13 1 41 1 42
REMARK Flexibility Score: inf
ROOT
ATOM      1  C   UNL     1       0.776   1.318   0.091  1.00  0.00     0.098 C 
ATOM      2  C   UNL     1       1.987   1.841   0.113  1.00  0.00     0.012 C 
ENDROOT
BRANCH   1   3
ATOM      3  N   UNL     1       0.614  -0.056  -0.031  1.00  0.00    -0.306 N 
ATOM      4  H   UNL     1       1.436  -0.661  -0.174  1.00  0.00     0.187 HD
BRANCH   3   5
ATOM      5  N   UNL     1      -0.666  -0.620   0.041  1.00  0.00    -0.269 N 
ATOM      6  C   UNL     1       0.113  -4.183  -0.411  1.00  0.00     0.191 C 
ATOM      7  N   UNL     1       0.214  -2.736  -0.261  1.00  0.00    -0.235 NA
ATOM      8  C   UNL     1      -1.218  -4.694   0.059  1.00  0.00     0.097 C 
ATOM      9  C   UNL     1      -0.826  -1.981  -0.080  1.00  0.00     0.232 C 
ATOM     10  N   UNL     1      -2.225  -3.902   0.234  1.00  0.00    -0.174 NA
ATOM     11  N   UNL     1      -2.086  -2.529  -0.003  1.00  0.00    -0.246 N 
ATOM     12  H   UNL     1      -2.919  -1.934  -0.119  1.00  0.00     0.193 HD
ATOM     13  H   UNL     1      -1.488  -0.016   0.184  1.00  0.00     0.191 HD
BRANCH   6  14
ATOM     14  C   UNL     1       1.205  -4.839   0.394  1.00  0.00    -0.017 A 
ATOM     15  C   UNL     1       3.208  -6.043   1.870  1.00  0.00     0.000 A 
ATOM     16  C   UNL     1       2.418  -5.065   2.445  1.00  0.00     0.000 A 
ATOM     17  C   UNL     1       2.998  -6.418   0.557  1.00  0.00     0.000 A 
ATOM     18  C   UNL     1       1.419  -4.460   1.706  1.00  0.00     0.006 A 
ATOM     19  C   UNL     1       1.996  -5.816  -0.182  1.00  0.00     0.006 A 
ENDBRANCH   6  14
BRANCH   8  20
ATOM     20  C   UNL     1      -1.381  -6.135   0.326  1.00  0.00     0.000 A 
ATOM     21  C   UNL     1      -2.236  -6.568   1.342  1.00  0.00     0.010 A 
ATOM     22  C   UNL     1      -0.684  -7.074  -0.439  1.00  0.00     0.010 A 
ATOM     23  C   UNL     1      -2.384  -7.917   1.587  1.00  0.00     0.001 A 
ATOM     24  C   UNL     1      -0.837  -8.420  -0.179  1.00  0.00     0.001 A 
ATOM     25  C   UNL     1      -1.687  -8.841   0.829  1.00  0.00     0.000 A 
ENDBRANCH   8  20
ENDBRANCH   3   5
ENDBRANCH   1   3
BRANCH   2  26
ATOM     26  C   UNL     1       3.190   0.965  -0.126  1.00  0.00     0.106 C 
BRANCH  26  27
ATOM     27  C   UNL     1       4.015   1.540  -1.248  1.00  0.00    -0.031 A 
ATOM     28  C   UNL     1       4.242   0.796  -2.391  1.00  0.00     0.005 A 
ATOM     29  C   UNL     1       4.540   2.814  -1.138  1.00  0.00     0.005 A 
ATOM     30  C   UNL     1       4.998   1.324  -3.421  1.00  0.00     0.000 A 
ATOM     31  C   UNL     1       5.301   3.340  -2.166  1.00  0.00     0.000 A 
ATOM     32  C   UNL     1       5.527   2.596  -3.308  1.00  0.00     0.000 A 
ENDBRANCH  26  27
BRANCH  26  33
ATOM     33  S   UNL     1       4.193   0.890   1.384  1.00  0.00    -0.111 SA
BRANCH  33  34
ATOM     34  C   UNL     1       5.460  -0.271   0.997  1.00  0.00     0.031 A 
ATOM     35  C   UNL     1       6.435  -0.586   1.944  1.00  0.00     0.045 A 
ATOM     36  C   UNL     1       5.489  -0.880  -0.250  1.00  0.00     0.017 A 
ATOM     37  C   UNL     1       7.429  -1.500   1.633  1.00  0.00     0.026 A 
ATOM     38  C   UNL     1       6.487  -1.787  -0.553  1.00  0.00     0.001 A 
ATOM     39  C   UNL     1       7.453  -2.098   0.386  1.00  0.00     0.002 A 
BRANCH  35  40
ATOM     40  N   UNL     1       6.408   0.020   3.206  1.00  0.00    -0.398 N 
ATOM     41  H   UNL     1       5.668   0.699   3.435  1.00  0.00     0.156 HD
ATOM     42  H   UNL     1       7.128  -0.213   3.905  1.00  0.00     0.156 HD
ENDBRANCH  35  40
ENDBRANCH  33  34
ENDBRANCH  26  33
ENDBRANCH   2  26
TORSDOF 9
