REMARK SMILES O=C(c1cc(-c2ccccc2)nn1-c1ccccc1)N1CCC[C@@H](c2nnc3n2CCCCC3)C1
REMARK SMILES IDX 20 1 21 2 22 3 23 4 24 5 35 6 2 7 1 8 3 9 5 10 12 11 4 12
REMARK SMILES IDX 13 13 6 14 9 15 10 16 8 17 11 18 7 19 14 20 19 21 15 22
REMARK SMILES IDX 18 23 16 24 17 25 25 26 29 27 26 28 28 29 27 30 30 31 31 32
REMARK SMILES IDX 34 34 33 35 32 36
REMARK H PARENT
REMARK Flexibility Score: 80.00
ROOT
ATOM      1  N   UNL     1       2.150   0.156   1.476  1.00  0.00    -0.337 N 
ATOM      2  C   UNL     1       1.105  -0.418   0.617  1.00  0.00     0.120 C 
ATOM      3  C   UNL     1       1.086   0.343  -0.712  1.00  0.00     0.022 C 
ATOM      4  C   UNL     1       0.921   1.839  -0.436  1.00  0.00     0.015 C 
ATOM      5  C   UNL     1       2.107   2.341   0.390  1.00  0.00     0.077 C 
ATOM      6  C   UNL     1       2.138   1.602   1.732  1.00  0.00     0.131 C 
ENDROOT
BRANCH   1   7
ATOM      7  C   UNL     1       3.102  -0.630   2.018  1.00  0.00     0.272 C 
ATOM      8  O   UNL     1       4.040  -0.129   2.608  1.00  0.00    -0.267 OA
BRANCH   7   9
ATOM      9  C   UNL     1       3.005  -2.093   1.897  1.00  0.00     0.132 A 
ATOM     10  C   UNL     1       2.275  -4.176   1.685  1.00  0.00     0.094 A 
ATOM     11  N   UNL     1       3.589  -4.181   1.771  1.00  0.00    -0.167 NA
ATOM     12  C   UNL     1       1.848  -2.837   1.762  1.00  0.00     0.065 A 
ATOM     13  N   UNL     1       4.043  -2.986   1.889  1.00  0.00    -0.227 N 
BRANCH  10  14
ATOM     14  C   UNL     1       1.402  -5.367   1.534  1.00  0.00     0.002 A 
ATOM     15  C   UNL     1      -0.227  -7.588   1.251  1.00  0.00     0.000 A 
ATOM     16  C   UNL     1      -0.788  -6.325   1.314  1.00  0.00     0.001 A 
ATOM     17  C   UNL     1       1.146  -7.745   1.330  1.00  0.00     0.001 A 
ATOM     18  C   UNL     1       0.019  -5.215   1.460  1.00  0.00     0.010 A 
ATOM     19  C   UNL     1       1.962  -6.641   1.470  1.00  0.00     0.010 A 
ENDBRANCH  10  14
BRANCH  13  20
ATOM     20  C   UNL     1       5.396  -2.646   1.996  1.00  0.00     0.065 A 
ATOM     21  C   UNL     1       6.240  -3.396   2.805  1.00  0.00     0.028 A 
ATOM     22  C   UNL     1       5.901  -1.562   1.289  1.00  0.00     0.028 A 
ATOM     23  C   UNL     1       7.575  -3.059   2.909  1.00  0.00     0.002 A 
ATOM     24  C   UNL     1       7.235  -1.226   1.403  1.00  0.00     0.002 A 
ATOM     25  C   UNL     1       8.072  -1.975   2.209  1.00  0.00     0.000 A 
ENDBRANCH  13  20
ENDBRANCH   7   9
ENDBRANCH   1   7
BRANCH   5  26
ATOM     26  C   UNL     1       1.961   3.821   0.634  1.00  0.00     0.137 A 
ATOM     27  N   UNL     1       2.828   4.786   0.256  1.00  0.00    -0.315 N 
ATOM     28  N   UNL     1       0.974   4.411   1.254  1.00  0.00    -0.135 NA
ATOM     29  C   UNL     1       2.305   5.956   0.691  1.00  0.00     0.133 A 
ATOM     30  N   UNL     1       1.179   5.682   1.286  1.00  0.00    -0.135 NA
BRANCH  27  31
ATOM     31  C   UNL     1       4.069   4.614  -0.500  1.00  0.00     0.125 C 
BRANCH  31  32
ATOM     32  C   UNL     1       5.037   5.747  -0.147  1.00  0.00     0.022 CG0
ATOM     33  G   UNL     1       4.812   6.930  -1.087  1.00  0.00     0.000 G0
ENDBRANCH  31  32
ENDBRANCH  27  31
BRANCH  29  34
ATOM     34  C   UNL     1       2.935   7.313   0.516  1.00  0.00     0.077 C 
BRANCH  34  35
ATOM     35  C   UNL     1       3.393   7.470  -0.937  1.00  0.00     0.008 C 
BRANCH  35  36
ATOM     36  C   UNL     1       4.812   6.930  -1.087  1.00  0.00     0.002 CG0
ATOM     37  G   UNL     1       5.037   5.747  -0.147  1.00  0.00     0.000 G0
ENDBRANCH  35  36
ENDBRANCH  34  35
ENDBRANCH  29  34
ENDBRANCH   5  26
TORSDOF 5
