REMARK SMILES O=c1c2c3c(sc2ncn1CCCc1ccncc1)C[C@@H]([NH2+]C1Cc2ccccc2C1)CC3
REMARK SMILES IDX 11 1 10 2 21 3 20 4 32 5 5 6 33 7 4 8 6 9 3 10 7 11 2 12
REMARK SMILES IDX 8 13 1 14 9 15 22 16 23 19 27 20 26 21 28 22 25 23 29 24
REMARK SMILES IDX 30 25 24 26 31 27 12 28 13 29 14 30 19 31 15 32 18 33 16 34
REMARK SMILES IDX 17 35
REMARK H PARENT 22 17 22 18
REMARK Flexibility Score: inf
ROOT
ATOM      1  C   UNL     1       5.968   4.679   1.463  1.00  0.00     0.127 C 
ENDROOT
BRANCH   1   2
ATOM      2  N   UNL     1       5.241   3.473   1.867  1.00  0.00    -0.299 N 
ATOM      3  C   UNL     1       0.002  -0.004   0.002  1.00  0.00     0.188 C 
ATOM      4  C   UNL     1       0.513  -0.496   1.364  1.00  0.00     0.112 C 
ATOM      5  C   UNL     1      -0.019   1.527   0.010  1.00  0.00     0.070 C 
ATOM      6  C   UNL     1       1.750   0.273   1.712  1.00  0.00     0.017 A 
ATOM      7  C   UNL     1       1.412   2.066  -0.000  1.00  0.00     0.044 C 
ATOM      8  C   UNL     1       2.194   1.416   1.138  1.00  0.00    -0.018 A 
ATOM      9  S   UNL     1       2.949  -0.114   2.963  1.00  0.00    -0.120 S 
ATOM     10  C   UNL     1       3.430   1.969   1.660  1.00  0.00     0.080 A 
ATOM     11  C   UNL     1       4.038   1.251   2.714  1.00  0.00     0.131 A 
ATOM     12  C   UNL     1       4.093   3.163   1.218  1.00  0.00     0.262 A 
ATOM     13  N   UNL     1       5.171   1.619   3.304  1.00  0.00    -0.227 NA
ATOM     14  O   UNL     1       3.652   3.854   0.316  1.00  0.00    -0.269 OA
ATOM     15  C   UNL     1       5.749   2.719   2.871  1.00  0.00     0.204 A 
BRANCH   3  16
ATOM     16  N   UNL     1      -1.365  -0.509  -0.226  1.00  0.00    -0.341 N 
ATOM     17  H   UNL     1      -1.862   0.129  -0.864  1.00  0.00     0.346 HD
ATOM     18  H   UNL     1      -1.868  -0.547   0.672  1.00  0.00     0.346 HD
BRANCH  16  19
ATOM     19  C   UNL     1      -1.320  -1.858  -0.820  1.00  0.00     0.191 C 
ATOM     20  C   UNL     1      -3.771  -5.129  -3.251  1.00  0.00     0.000 A 
ATOM     21  C   UNL     1      -3.717  -4.522  -2.011  1.00  0.00     0.004 A 
ATOM     22  C   UNL     1      -2.990  -4.652  -4.287  1.00  0.00     0.000 A 
ATOM     23  C   UNL     1      -2.882  -3.437  -1.802  1.00  0.00    -0.039 A 
ATOM     24  C   UNL     1      -2.157  -3.569  -4.081  1.00  0.00     0.004 A 
ATOM     25  C   UNL     1      -2.102  -2.960  -2.838  1.00  0.00    -0.039 A 
ATOM     26  C   UNL     1      -2.643  -2.608  -0.558  1.00  0.00     0.101 C 
ATOM     27  C   UNL     1      -1.279  -1.778  -2.361  1.00  0.00     0.101 C 
ENDBRANCH  16  19
ENDBRANCH   3  16
ENDBRANCH   1   2
BRANCH   1  28
ATOM     28  C   UNL     1       6.971   4.327   0.363  1.00  0.00     0.027 C 
BRANCH  28  29
ATOM     29  C   UNL     1       7.730   5.587  -0.058  1.00  0.00     0.037 C 
BRANCH  29  30
ATOM     30  C   UNL     1       8.718   5.239  -1.141  1.00  0.00    -0.045 A 
ATOM     31  C   UNL     1       8.356   5.298  -2.478  1.00  0.00     0.024 A 
ATOM     32  C   UNL     1      10.014   4.859  -0.825  1.00  0.00     0.024 A 
ATOM     33  C   UNL     1       9.289   4.973  -3.444  1.00  0.00     0.111 A 
ATOM     34  C   UNL     1      10.891   4.544  -1.845  1.00  0.00     0.111 A 
ATOM     35  N   UNL     1      10.511   4.611  -3.106  1.00  0.00    -0.265 NA
ENDBRANCH  29  30
ENDBRANCH  28  29
ENDBRANCH   1  28
TORSDOF 6
