REMARK SMILES Nc1cccc(CN2C(=O)N(Cc3ccc4n[nH]cc4c3)[C@H](Cc3ccccc3)[C@H](O)[C@@H](O)[C@H]2Cc2ccccc2)c1
REMARK SMILES IDX 9 1 10 2 8 3 34 4 35 5 36 6 39 7 40 8 38 9 41 10 37 11 32 12
REMARK SMILES IDX 33 14 7 16 6 17 42 18 5 19 2 20 4 21 3 22 1 23 11 26 22 27
REMARK SMILES IDX 30 28 31 30 23 32 24 33 29 34 25 35 28 36 26 37 27 38 12 39
REMARK SMILES IDX 13 40 21 41 14 42 20 43 15 44 16 45 19 46 17 47 18 48
REMARK H PARENT 33 15 1 24 1 25 31 31 18 49
REMARK Flexibility Score: 90.00
ROOT
ATOM      1  C   UNL     1       0.319   1.041  -0.346  1.00  0.00     0.321 C 
ATOM      2  O   UNL     1       0.341  -0.176  -0.383  1.00  0.00    -0.248 OA
ENDROOT
BRANCH   1   3
ATOM      3  N   UNL     1      -0.866   1.618  -0.395  1.00  0.00    -0.314 N 
BRANCH   3   4
ATOM      4  C   UNL     1      -1.213   2.926   0.145  1.00  0.00     0.123 C 
BRANCH   4   5
ATOM      5  C   UNL     1      -1.463   3.921  -0.985  1.00  0.00     0.063 C 
BRANCH   5   6
ATOM      6  C   UNL     1      -2.084   5.174  -0.422  1.00  0.00    -0.046 A 
ATOM      7  C   UNL     1      -3.223   7.472   0.610  1.00  0.00     0.000 A 
ATOM      8  C   UNL     1      -4.016   6.376   0.324  1.00  0.00     0.000 A 
ATOM      9  C   UNL     1      -1.861   7.419   0.378  1.00  0.00     0.000 A 
ATOM     10  C   UNL     1      -3.447   5.228  -0.195  1.00  0.00     0.004 A 
ATOM     11  C   UNL     1      -1.292   6.270  -0.138  1.00  0.00     0.004 A 
ENDBRANCH   5   6
ENDBRANCH   4   5
BRANCH   4  12
ATOM     12  C   UNL     1      -0.140   3.430   1.109  1.00  0.00     0.168 CG0
ATOM     13  G   UNL     1       1.060   3.994   0.378  1.00  0.00     0.000 G0
BRANCH  12  14
ATOM     14  O   UNL     1      -0.699   4.446   1.952  1.00  0.00    -0.388 OA
ATOM     15  H   UNL     1      -1.456   4.070   2.469  1.00  0.00     0.211 HD
ENDBRANCH  12  14
ENDBRANCH   4  12
ENDBRANCH   3   4
BRANCH   3  16
ATOM     16  C   UNL     1      -1.941   0.866  -1.059  1.00  0.00     0.157 C 
BRANCH  16  17
ATOM     17  C   UNL     1      -2.738   0.111  -0.025  1.00  0.00    -0.026 A 
ATOM     18  C   UNL     1      -2.374  -1.175   0.323  1.00  0.00     0.031 A 
ATOM     19  C   UNL     1      -3.836   0.706   0.569  1.00  0.00     0.006 A 
ATOM     20  C   UNL     1      -3.106  -1.867   1.279  1.00  0.00     0.032 A 
ATOM     21  C   UNL     1      -4.569   0.018   1.518  1.00  0.00     0.002 A 
ATOM     22  C   UNL     1      -4.208  -1.267   1.875  1.00  0.00     0.025 A 
BRANCH  20  23
ATOM     23  N   UNL     1      -2.737  -3.166   1.637  1.00  0.00    -0.399 N 
ATOM     24  H   UNL     1      -3.283  -3.679   2.344  1.00  0.00     0.156 HD
ATOM     25  H   UNL     1      -1.920  -3.610   1.196  1.00  0.00     0.156 HD
ENDBRANCH  20  23
ENDBRANCH  16  17
ENDBRANCH   3  16
ENDBRANCH   1   3
BRANCH   1  26
ATOM     26  N   UNL     1       1.508   1.663  -0.265  1.00  0.00    -0.314 N 
BRANCH  26  27
ATOM     27  C   UNL     1       1.660   3.065  -0.653  1.00  0.00     0.123 C 
BRANCH  27  28
ATOM     28  C   UNL     1       1.060   3.994   0.378  1.00  0.00     0.168 CG0
ATOM     29  G   UNL     1      -0.140   3.430   1.109  1.00  0.00     0.000 G0
BRANCH  28  30
ATOM     30  O   UNL     1       2.074   4.298   1.349  1.00  0.00    -0.388 OA
ATOM     31  H   UNL     1       2.341   3.475   1.832  1.00  0.00     0.211 HD
ENDBRANCH  28  30
ENDBRANCH  27  28
BRANCH  27  32
ATOM     32  C   UNL     1       3.154   3.380  -0.801  1.00  0.00     0.063 C 
BRANCH  32  33
ATOM     33  C   UNL     1       3.321   4.774  -1.349  1.00  0.00    -0.046 A 
ATOM     34  C   UNL     1       3.464   5.843  -0.485  1.00  0.00     0.004 A 
ATOM     35  C   UNL     1       3.337   4.982  -2.715  1.00  0.00     0.004 A 
ATOM     36  C   UNL     1       3.618   7.122  -0.987  1.00  0.00     0.000 A 
ATOM     37  C   UNL     1       3.487   6.261  -3.218  1.00  0.00     0.000 A 
ATOM     38  C   UNL     1       3.629   7.331  -2.353  1.00  0.00     0.000 A 
ENDBRANCH  32  33
ENDBRANCH  27  32
ENDBRANCH  26  27
BRANCH  26  39
ATOM     39  C   UNL     1       2.685   0.911   0.182  1.00  0.00     0.157 C 
BRANCH  39  40
ATOM     40  C   UNL     1       3.270   0.154  -0.983  1.00  0.00    -0.028 A 
ATOM     41  C   UNL     1       2.722  -1.038  -1.358  1.00  0.00     0.017 A 
ATOM     42  C   UNL     1       4.362   0.678  -1.665  1.00  0.00     0.008 A 
ATOM     43  C   UNL     1       3.267  -1.740  -2.440  1.00  0.00     0.020 A 
ATOM     44  C   UNL     1       4.911   0.011  -2.724  1.00  0.00     0.031 A 
ATOM     45  C   UNL     1       4.373  -1.208  -3.129  1.00  0.00     0.092 A 
ATOM     46  C   UNL     1       2.945  -3.004  -3.094  1.00  0.00     0.114 A 
ATOM     47  N   UNL     1       4.684  -2.098  -4.124  1.00  0.00    -0.176 NA
ATOM     48  N   UNL     1       3.797  -3.179  -4.063  1.00  0.00    -0.285 N 
ATOM     49  H   UNL     1       3.815  -3.993  -4.693  1.00  0.00     0.189 HD
ENDBRANCH  39  40
ENDBRANCH  26  39
ENDBRANCH   1  26
TORSDOF 11
