REMARK SMILES O=C(Nc1n[nH]c2nc(-c3ccco3)c(Br)cc12)[C@H]1CC[N@H+](Cc2ccccc2)C1
REMARK SMILES IDX 21 1 20 2 19 3 30 4 22 5 23 7 24 8 27 9 28 10 26 11 29 12
REMARK SMILES IDX 25 13 2 14 1 15 3 16 4 18 5 19 18 20 6 21 7 22 17 23 8 25
REMARK SMILES IDX 15 26 9 27 16 28 10 29 14 30 11 31 13 32 12 33
REMARK H PARENT 22 6 3 17 6 24
REMARK Flexibility Score: inf
ROOT
ATOM      1  C   UNL     1      -7.124  -8.392   0.031  1.00  0.00     0.263 C 
ATOM      2  C   UNL     1      -6.098  -7.237   0.136  1.00  0.00     0.081 C 
ATOM      3  C   UNL     1      -6.892  -6.056  -0.482  1.00  0.00     0.139 C 
ATOM      4  C   UNL     1      -8.337  -6.325  -0.012  1.00  0.00     0.276 C 
ATOM      5  N   UNL     1      -8.424  -7.756   0.322  1.00  0.00    -0.330 N 
ATOM      6  H   UNL     1      -8.649  -7.866   1.321  1.00  0.00     0.348 HD
ENDROOT
BRANCH   5   7
ATOM      7  C   UNL     1      -9.500  -8.403  -0.474  1.00  0.00     0.299 C 
BRANCH   7   8
ATOM      8  C   UNL     1      -9.410  -9.899  -0.312  1.00  0.00     0.006 A 
ATOM      9  C   UNL     1      -9.246 -12.643  -0.015  1.00  0.00     0.000 A 
ATOM     10  C   UNL     1      -8.560 -12.016  -1.038  1.00  0.00     0.001 A 
ATOM     11  C   UNL     1     -10.015 -11.898   0.859  1.00  0.00     0.001 A 
ATOM     12  C   UNL     1      -8.646 -10.645  -1.190  1.00  0.00     0.009 A 
ATOM     13  C   UNL     1     -10.097 -10.526   0.711  1.00  0.00     0.009 A 
ENDBRANCH   7   8
ENDBRANCH   5   7
BRANCH   3  14
ATOM     14  C   UNL     1      -6.394  -4.739   0.056  1.00  0.00     0.234 C 
ATOM     15  O   UNL     1      -7.114  -4.058   0.756  1.00  0.00    -0.274 OA
ATOM     16  N   UNL     1      -5.148  -4.318  -0.241  1.00  0.00    -0.308 N 
ATOM     17  H   UNL     1      -4.537  -4.896  -0.835  1.00  0.00     0.171 HD
BRANCH  16  18
ATOM     18  C   UNL     1      -4.686  -3.095   0.259  1.00  0.00     0.164 A 
ATOM     19  N   UNL     1      -5.354  -2.269   1.019  1.00  0.00    -0.155 NA
ATOM     20  C   UNL     1      -3.367  -2.510   0.024  1.00  0.00     0.064 A 
ATOM     21  N   UNL     1      -4.569  -1.152   1.318  1.00  0.00    -0.259 N 
ATOM     22  C   UNL     1      -3.346  -1.282   0.716  1.00  0.00     0.158 A 
ATOM     23  C   UNL     1      -2.235  -2.916  -0.696  1.00  0.00     0.034 A 
ATOM     24  H   UNL     1      -4.864  -0.355   1.901  1.00  0.00     0.192 HD
ATOM     25  N   UNL     1      -2.261  -0.520   0.684  1.00  0.00    -0.224 NA
ATOM     26  C   UNL     1      -1.142  -2.094  -0.704  1.00  0.00     0.048 A 
ATOM     27  C   UNL     1      -1.181  -0.886   0.009  1.00  0.00     0.122 A 
ATOM     28  Br  UNL     1       0.412  -2.584  -1.663  1.00  0.00    -0.048 Br
BRANCH  27  29
ATOM     29  C   UNL     1       0.002  -0.004   0.002  1.00  0.00     0.153 A 
ATOM     30  O   UNL     1       1.288  -0.405  -0.012  1.00  0.00    -0.463 OA
ATOM     31  C   UNL     1      -0.016   1.357   0.009  1.00  0.00     0.052 A 
ATOM     32  C   UNL     1       2.091   0.670  -0.014  1.00  0.00     0.196 A 
ATOM     33  C   UNL     1       1.326   1.780  -0.001  1.00  0.00     0.043 A 
ENDBRANCH  27  29
ENDBRANCH  16  18
ENDBRANCH   3  14
TORSDOF 5
