REMARK SMILES Cc1c(C)n(C2CCCCC2)c(=S)n1CN1CCN(Cc2cc(=O)n3ccsc3n2)CC1
REMARK SMILES IDX 16 1 17 2 18 3 19 4 31 5 32 6 15 7 14 8 1 9 2 10 3 11 12 12
REMARK SMILES IDX 5 13 4 14 13 15 6 16 11 17 7 18 10 19 8 20 9 21 20 22 21 23
REMARK SMILES IDX 30 24 22 25 29 26 23 27 25 28 28 29 24 30 26 31 27 32
REMARK H PARENT
REMARK Flexibility Score: inf
ROOT
ATOM      1  N   UNL     1      -4.875   3.997   3.707  1.00  0.00    -0.283 NA
ATOM      2  C   UNL     1      -4.703   4.902   2.562  1.00  0.00     0.102 C 
ATOM      3  C   UNL     1      -4.713   4.089   1.265  1.00  0.00     0.100 C 
ATOM      4  N   UNL     1      -3.637   3.090   1.309  1.00  0.00    -0.295 NA
ATOM      5  C   UNL     1      -3.808   2.184   2.453  1.00  0.00     0.100 C 
ATOM      6  C   UNL     1      -3.798   2.998   3.750  1.00  0.00     0.102 C 
ENDROOT
BRANCH   1   7
ATOM      7  C   UNL     1      -4.946   4.749   4.967  1.00  0.00     0.212 C 
BRANCH   7   8
ATOM      8  N   UNL     1      -4.877   3.818   6.095  1.00  0.00    -0.307 N 
ATOM      9  C   UNL     1      -7.407   3.393   6.355  1.00  0.00     0.066 C 
ATOM     10  C   UNL     1      -5.956   3.211   6.719  1.00  0.00     0.038 A 
ATOM     11  C   UNL     1      -5.485   2.439   7.692  1.00  0.00     0.037 A 
ATOM     12  C   UNL     1      -3.752   3.405   6.713  1.00  0.00     0.181 A 
ATOM     13  N   UNL     1      -4.104   2.556   7.699  1.00  0.00    -0.318 N 
ATOM     14  C   UNL     1      -6.307   1.589   8.627  1.00  0.00     0.066 C 
ATOM     15  S   UNL     1      -2.155   3.877   6.315  1.00  0.00    -0.040 S 
BRANCH  13  16
ATOM     16  C   UNL     1      -3.186   1.876   8.617  1.00  0.00     0.090 C 
ATOM     17  C   UNL     1      -2.222   0.998   7.817  1.00  0.00     0.025 C 
ATOM     18  C   UNL     1      -2.392   2.917   9.408  1.00  0.00     0.025 C 
ATOM     19  C   UNL     1      -1.264   0.288   8.776  1.00  0.00     0.002 C 
ATOM     20  C   UNL     1      -1.434   2.207  10.367  1.00  0.00     0.002 C 
ATOM     21  C   UNL     1      -0.469   1.329   9.567  1.00  0.00     0.000 C 
ENDBRANCH  13  16
ENDBRANCH   7   8
ENDBRANCH   1   7
BRANCH   4  22
ATOM     22  C   UNL     1      -3.566   2.338   0.049  1.00  0.00     0.141 C 
BRANCH  22  23
ATOM     23  C   UNL     1      -2.311   1.503   0.032  1.00  0.00     0.063 A 
ATOM     24  N   UNL     1      -1.113   2.081   0.029  1.00  0.00    -0.224 NA
ATOM     25  C   UNL     1      -2.385   0.126   0.025  1.00  0.00     0.097 A 
ATOM     26  C   UNL     1      -0.017   1.365   0.009  1.00  0.00     0.196 A 
ATOM     27  C   UNL     1      -1.213  -0.630   0.010  1.00  0.00     0.258 A 
ATOM     28  N   UNL     1       0.002  -0.004   0.002  1.00  0.00    -0.259 N 
ATOM     29  S   UNL     1       1.713   1.784  -0.005  1.00  0.00    -0.105 S 
ATOM     30  O   UNL     1      -1.272  -1.849   0.005  1.00  0.00    -0.269 OA
ATOM     31  C   UNL     1       1.237  -0.607  -0.013  1.00  0.00     0.108 A 
ATOM     32  C   UNL     1       2.356   0.117  -0.019  1.00  0.00     0.087 A 
ENDBRANCH  22  23
ENDBRANCH   4  22
TORSDOF 5
