REMARK SMILES CCOc1cc([C@@H]2C(C#N)=C(N)Oc3[nH]nc(-c4ccncc4)c32)ccc1OCc1ccccc1
REMARK SMILES IDX 4 1 5 2 6 3 25 4 26 5 27 6 3 7 2 8 1 9 28 10 29 11 30 12
REMARK SMILES IDX 35 13 31 14 34 15 32 16 33 17 7 18 8 19 24 20 11 21 14 22
REMARK SMILES IDX 17 23 13 24 15 25 16 26 9 28 10 29 12 30 18 33 23 34 19 35
REMARK SMILES IDX 22 36 20 37 21 38
REMARK H PARENT 15 27 12 31 12 32
REMARK Flexibility Score: inf
ROOT
ATOM      1  C   UNL     1       5.740  -1.842  -2.877  1.00  0.00     0.161 A 
ATOM      2  C   UNL     1       6.938  -2.512  -3.070  1.00  0.00     0.055 A 
ATOM      3  C   UNL     1       7.680  -2.928  -1.980  1.00  0.00    -0.031 A 
ATOM      4  C   UNL     1       7.231  -2.676  -0.697  1.00  0.00     0.009 A 
ATOM      5  C   UNL     1       6.040  -2.003  -0.498  1.00  0.00     0.051 A 
ATOM      6  C   UNL     1       5.288  -1.589  -1.586  1.00  0.00     0.161 A 
ENDROOT
BRANCH   1   7
ATOM      7  O   UNL     1       5.009  -1.433  -3.948  1.00  0.00    -0.490 OA
BRANCH   7   8
ATOM      8  C   UNL     1       5.535  -1.727  -5.244  1.00  0.00     0.226 C 
ATOM      9  C   UNL     1       4.582  -1.193  -6.315  1.00  0.00     0.049 C 
ENDBRANCH   7   8
ENDBRANCH   1   7
BRANCH   6  10
ATOM     10  O   UNL     1       4.113  -0.932  -1.392  1.00  0.00    -0.485 OA
BRANCH  10  11
ATOM     11  C   UNL     1       3.711  -0.707  -0.039  1.00  0.00     0.265 C 
BRANCH  11  12
ATOM     12  C   UNL     1       2.396   0.029  -0.022  1.00  0.00    -0.011 A 
ATOM     13  C   UNL     1       2.377   1.411  -0.014  1.00  0.00     0.007 A 
ATOM     14  C   UNL     1       1.208  -0.679  -0.014  1.00  0.00     0.007 A 
ATOM     15  C   UNL     1       1.171   2.086   0.002  1.00  0.00     0.000 A 
ATOM     16  C   UNL     1       0.002  -0.004   0.002  1.00  0.00     0.000 A 
ATOM     17  C   UNL     1      -0.017   1.378   0.010  1.00  0.00     0.000 A 
ENDBRANCH  11  12
ENDBRANCH  10  11
ENDBRANCH   6  10
BRANCH   3  18
ATOM     18  C   UNL     1       8.983  -3.656  -2.191  1.00  0.00     0.104 C 
ATOM     19  C   UNL     1       8.914  -5.018  -1.546  1.00  0.00     0.102 C 
ATOM     20  C   UNL     1      10.106  -2.886  -1.547  1.00  0.00     0.055 A 
ATOM     21  C   UNL     1       9.587  -5.318  -0.413  1.00  0.00     0.207 C 
ATOM     22  C   UNL     1      10.725  -3.303  -0.403  1.00  0.00     0.222 A 
ATOM     23  C   UNL     1      10.701  -1.686  -1.947  1.00  0.00     0.100 A 
ATOM     24  O   UNL     1      10.379  -4.445   0.243  1.00  0.00    -0.422 OA
ATOM     25  N   UNL     1      11.675  -2.395  -0.096  1.00  0.00    -0.246 N 
ATOM     26  N   UNL     1      11.645  -1.389  -1.074  1.00  0.00    -0.172 NA
ATOM     27  H   UNL     1      12.309  -2.433   0.715  1.00  0.00     0.193 HD
BRANCH  19  28
ATOM     28  C   UNL     1       8.106  -6.030  -2.157  1.00  0.00     0.101 C 
ATOM     29  N   UNL     1       7.465  -6.834  -2.642  1.00  0.00    -0.193 NA
ENDBRANCH  19  28
BRANCH  21  30
ATOM     30  N   UNL     1       9.457  -6.584   0.100  1.00  0.00    -0.369 N 
ATOM     31  H   UNL     1       9.947  -6.867   0.961  1.00  0.00     0.159 HD
ATOM     32  H   UNL     1       8.856  -7.263  -0.389  1.00  0.00     0.159 HD
ENDBRANCH  21  30
BRANCH  23  33
ATOM     33  C   UNL     1      10.335  -0.887  -3.143  1.00  0.00     0.005 A 
ATOM     34  C   UNL     1      10.393   0.509  -3.118  1.00  0.00     0.030 A 
ATOM     35  C   UNL     1       9.928  -1.510  -4.325  1.00  0.00     0.030 A 
ATOM     36  C   UNL     1      10.044   1.214  -4.252  1.00  0.00     0.111 A 
ATOM     37  C   UNL     1       9.592  -0.730  -5.412  1.00  0.00     0.111 A 
ATOM     38  N   UNL     1       9.660   0.586  -5.347  1.00  0.00    -0.265 NA
ENDBRANCH  23  33
ENDBRANCH   3  18
TORSDOF 9
