REMARK SMILES CCOC(=O)c1[nH]c2ccc(OC)cc2c1/[NH+]=C(\[S-])N1CCN(c2ccc(F)cc2)CC1
REMARK SMILES IDX 6 1 16 2 15 3 14 4 11 5 10 6 9 7 8 8 7 9 4 11 5 12 3 13 2 14
REMARK SMILES IDX 1 15 17 16 18 17 20 19 19 20 32 21 21 22 31 23 22 24 23 25
REMARK SMILES IDX 24 26 30 27 25 28 29 29 26 30 27 31 28 32 12 33 13 34
REMARK H PARENT 7 10 17 18
REMARK Flexibility Score: inf
ROOT
ATOM      1  C   UNL     1       1.870  -1.340   1.091  1.00  0.00     0.173 A 
ATOM      2  C   UNL     1       2.128  -0.545  -0.021  1.00  0.00     0.164 A 
ATOM      3  C   UNL     1       1.827  -1.370  -1.201  1.00  0.00     0.051 A 
ATOM      4  C   UNL     1       1.893  -1.135  -2.576  1.00  0.00     0.061 A 
ATOM      5  C   UNL     1       1.535  -2.134  -3.458  1.00  0.00     0.119 A 
ATOM      6  C   UNL     1       1.110  -3.371  -2.981  1.00  0.00     0.048 A 
ATOM      7  C   UNL     1       1.041  -3.615  -1.629  1.00  0.00     0.030 A 
ATOM      8  C   UNL     1       1.397  -2.619  -0.721  1.00  0.00     0.051 A 
ATOM      9  N   UNL     1       1.426  -2.584   0.657  1.00  0.00    -0.345 N 
ATOM     10  H   UNL     1       1.158  -3.364   1.274  1.00  0.00     0.167 HD
ENDROOT
BRANCH   1  11
ATOM     11  C   UNL     1       2.030  -0.948   2.437  1.00  0.00     0.359 C 
ATOM     12  O   UNL     1       2.425   0.174   2.701  1.00  0.00    -0.244 OA
BRANCH  11  13
ATOM     13  O   UNL     1       1.744  -1.815   3.431  1.00  0.00    -0.461 OA
BRANCH  13  14
ATOM     14  C   UNL     1       1.929  -1.351   4.770  1.00  0.00     0.230 C 
ATOM     15  C   UNL     1       1.558  -2.464   5.752  1.00  0.00     0.049 C 
ENDBRANCH  13  14
ENDBRANCH  11  13
ENDBRANCH   1  11
BRANCH   2  16
ATOM     16  N   UNL     1       2.575   0.737  -0.019  1.00  0.00    -0.262 N 
ATOM     17  C   UNL     1       1.714   1.735  -0.005  1.00  0.00     0.129 C 
ATOM     18  H   UNL     1       3.587   0.930  -0.027  1.00  0.00     0.310 HD
ATOM     19  N   UNL     1       2.165   3.030  -0.002  1.00  0.00    -0.281 N 
ATOM     20  S   UNL     1      -0.017   1.406   0.010  1.00  0.00    -0.692 S 
ATOM     21  C   UNL     1       1.222   4.158   0.013  1.00  0.00     0.255 C 
ATOM     22  C   UNL     1       3.606   3.327  -0.008  1.00  0.00     0.255 C 
ATOM     23  C   UNL     1       1.597   5.122  -1.118  1.00  0.00     0.162 C 
ATOM     24  C   UNL     1       3.887   4.324  -1.144  1.00  0.00     0.162 C 
ATOM     25  N   UNL     1       3.013   5.494  -0.990  1.00  0.00    -0.364 N 
BRANCH  25  26
ATOM     26  C   UNL     1       3.352   6.496  -1.903  1.00  0.00     0.037 A 
ATOM     27  C   UNL     1       4.649   6.990  -1.944  1.00  0.00     0.029 A 
ATOM     28  C   UNL     1       2.393   6.996  -2.775  1.00  0.00     0.029 A 
ATOM     29  C   UNL     1       4.982   7.980  -2.848  1.00  0.00     0.041 A 
ATOM     30  C   UNL     1       2.729   7.990  -3.674  1.00  0.00     0.041 A 
ATOM     31  C   UNL     1       4.024   8.481  -3.713  1.00  0.00     0.123 A 
ATOM     32  F   UNL     1       4.351   9.450  -4.595  1.00  0.00    -0.207 F 
ENDBRANCH  25  26
ENDBRANCH   2  16
BRANCH   5  33
ATOM     33  O   UNL     1       1.597  -1.909  -4.798  1.00  0.00    -0.497 OA
ATOM     34  C   UNL     1       1.213  -2.986  -5.655  1.00  0.00     0.278 C 
ENDBRANCH   5  33
TORSDOF 6
