REMARK SMILES C[C@@H](NC(=O)CCc1ccccc1)c1nnc2n1CC[N@@H+](Cc1ccc3c(c1)Cc1ccccc1-3)CC2
REMARK SMILES IDX 14 1 15 2 16 3 17 4 18 5 2 6 1 7 3 8 4 9 5 11 6 12 7 13 8 14
REMARK SMILES IDX 13 15 9 16 12 17 10 18 11 19 19 20 37 22 36 23 21 24 20 26
REMARK SMILES IDX 22 28 23 29 28 30 24 31 27 32 25 33 26 34 29 35 35 36 30 37
REMARK SMILES IDX 34 38 31 39 33 40 32 41
REMARK H PARENT 3 10 21 25
REMARK Flexibility Score: 90.00
ROOT
ATOM      1  C   UNL     1      -0.718   1.572   1.248  1.00  0.00     0.155 A 
ATOM      2  N   UNL     1      -0.691   2.786   1.731  1.00  0.00    -0.133 NA
ATOM      3  N   UNL     1      -1.414   2.847   2.795  1.00  0.00    -0.135 NA
ATOM      4  C   UNL     1      -1.936   1.680   3.033  1.00  0.00     0.138 A 
ATOM      5  N   UNL     1      -1.501   0.836   2.065  1.00  0.00    -0.307 N 
ENDROOT
BRANCH   1   6
ATOM      6  C   UNL     1      -0.013   1.086   0.008  1.00  0.00     0.147 C 
ATOM      7  C   UNL     1      -0.753   1.593  -1.232  1.00  0.00     0.039 C 
BRANCH   6   8
ATOM      8  N   UNL     1       1.362   1.593  -0.002  1.00  0.00    -0.346 N 
ATOM      9  C   UNL     1       2.318   0.933  -0.685  1.00  0.00     0.220 C 
ATOM     10  H   UNL     1       1.597   2.454   0.512  1.00  0.00     0.164 HD
ATOM     11  O   UNL     1       2.042  -0.081  -1.290  1.00  0.00    -0.275 OA
BRANCH   9  12
ATOM     12  C   UNL     1       3.732   1.454  -0.695  1.00  0.00     0.105 C 
BRANCH  12  13
ATOM     13  C   UNL     1       4.612   0.527  -1.536  1.00  0.00     0.045 C 
BRANCH  13  14
ATOM     14  C   UNL     1       6.026   1.048  -1.547  1.00  0.00    -0.048 A 
ATOM     15  C   UNL     1       6.921   0.638  -0.577  1.00  0.00     0.004 A 
ATOM     16  C   UNL     1       6.428   1.933  -2.530  1.00  0.00     0.004 A 
ATOM     17  C   UNL     1       8.218   1.116  -0.587  1.00  0.00     0.000 A 
ATOM     18  C   UNL     1       7.724   2.415  -2.537  1.00  0.00     0.000 A 
ATOM     19  C   UNL     1       8.619   2.005  -1.567  1.00  0.00     0.000 A 
ENDBRANCH  13  14
ENDBRANCH  12  13
ENDBRANCH   9  12
ENDBRANCH   6   8
ENDBRANCH   1   6
BRANCH   5  20
ATOM     20  C   UNL     1      -1.802  -0.593   1.970  1.00  0.00     0.186 CG0
ATOM     21  G   UNL     1      -3.159  -0.863   2.627  1.00  0.00     0.000 G0
ENDBRANCH   5  20
BRANCH   4  22
ATOM     22  C   UNL     1      -2.866   1.297   4.155  1.00  0.00     0.139 C 
BRANCH  22  23
ATOM     23  C   UNL     1      -2.382  -0.019   4.773  1.00  0.00     0.270 C 
BRANCH  23  24
ATOM     24  N   UNL     1      -3.005  -1.161   4.070  1.00  0.00    -0.329 N 
ATOM     25  H   UNL     1      -3.939  -1.324   4.472  1.00  0.00     0.348 HD
BRANCH  24  26
ATOM     26  C   UNL     1      -3.159  -0.863   2.627  1.00  0.00     0.284 CG0
ATOM     27  G   UNL     1      -1.802  -0.593   1.970  1.00  0.00     0.000 G0
ENDBRANCH  24  26
BRANCH  24  28
ATOM     28  C   UNL     1      -2.180  -2.370   4.248  1.00  0.00     0.299 C 
BRANCH  28  29
ATOM     29  C   UNL     1      -2.250  -2.789   5.693  1.00  0.00     0.006 A 
ATOM     30  C   UNL     1      -3.249  -3.648   6.117  1.00  0.00     0.014 A 
ATOM     31  C   UNL     1      -1.311  -2.320   6.595  1.00  0.00     0.010 A 
ATOM     32  C   UNL     1      -3.313  -4.033   7.439  1.00  0.00    -0.035 A 
ATOM     33  C   UNL     1      -1.371  -2.696   7.920  1.00  0.00     0.009 A 
ATOM     34  C   UNL     1      -2.376  -3.562   8.354  1.00  0.00    -0.015 A 
ATOM     35  C   UNL     1      -4.263  -4.938   8.186  1.00  0.00     0.072 C 
ATOM     36  C   UNL     1      -2.670  -4.125   9.696  1.00  0.00    -0.015 A 
ATOM     37  C   UNL     1      -3.790  -4.947   9.618  1.00  0.00    -0.036 A 
ATOM     38  C   UNL     1      -2.028  -3.956  10.924  1.00  0.00     0.009 A 
ATOM     39  C   UNL     1      -4.261  -5.589  10.745  1.00  0.00     0.005 A 
ATOM     40  C   UNL     1      -2.506  -4.602  12.045  1.00  0.00     0.001 A 
ATOM     41  C   UNL     1      -3.620  -5.417  11.959  1.00  0.00     0.000 A 
ENDBRANCH  28  29
ENDBRANCH  24  28
ENDBRANCH  23  24
ENDBRANCH  22  23
ENDBRANCH   4  22
TORSDOF 7
