REMARK SMILES Cc1nn(-c2ccc3onc(N)c3c2)c2c1CCN(c1ccc(-c3ccccc3C[N@@H+]3CC[C@@H](O)C3)cc1F)C2=O
REMARK SMILES IDX 20 1 21 2 22 3 23 4 37 5 38 6 39 7 19 8 1 9 2 10 3 11 16 12
REMARK SMILES IDX 4 13 17 14 15 15 18 16 40 17 41 18 5 19 14 20 6 21 13 22
REMARK SMILES IDX 7 23 8 24 11 25 9 26 10 27 12 28 24 31 29 32 25 33 28 34
REMARK SMILES IDX 26 35 27 36 30 37 31 38 32 39 36 40 33 42 34 43 35 44
REMARK H PARENT 12 29 12 30 31 41 35 45
REMARK Flexibility Score: inf
ROOT
ATOM      1  C   UNL     1       1.464   2.714  -0.384  1.00  0.00     0.080 A 
ATOM      2  C   UNL     1       1.742   1.356  -0.289  1.00  0.00     0.030 A 
ATOM      3  C   UNL     1       0.714   0.437  -0.316  1.00  0.00     0.011 A 
ATOM      4  C   UNL     1      -0.605   0.870  -0.445  1.00  0.00    -0.015 A 
ATOM      5  C   UNL     1      -0.883   2.233  -0.536  1.00  0.00     0.050 A 
ATOM      6  C   UNL     1       0.148   3.150  -0.508  1.00  0.00     0.147 A 
ATOM      7  F   UNL     1      -0.120   4.471  -0.601  1.00  0.00    -0.205 F 
ENDROOT
BRANCH   1   8
ATOM      8  N   UNL     1       2.508   3.644  -0.356  1.00  0.00    -0.304 N 
ATOM      9  C   UNL     1       7.127   6.145   0.528  1.00  0.00     0.069 C 
ATOM     10  C   UNL     1       6.096   5.699  -0.476  1.00  0.00     0.064 A 
ATOM     11  N   UNL     1       6.094   5.972  -1.764  1.00  0.00    -0.172 NA
ATOM     12  C   UNL     1       4.982   4.930  -0.213  1.00  0.00     0.008 A 
ATOM     13  N   UNL     1       5.074   5.440  -2.350  1.00  0.00    -0.227 N 
ATOM     14  C   UNL     1       4.454   4.304   1.046  1.00  0.00     0.062 C 
ATOM     15  C   UNL     1       4.328   4.784  -1.436  1.00  0.00     0.136 A 
ATOM     16  C   UNL     1       2.929   4.183   0.931  1.00  0.00     0.131 C 
ATOM     17  C   UNL     1       3.082   4.011  -1.526  1.00  0.00     0.277 C 
ATOM     18  O   UNL     1       2.590   3.716  -2.598  1.00  0.00    -0.267 OA
BRANCH  13  19
ATOM     19  C   UNL     1       4.786   5.529  -3.718  1.00  0.00     0.066 A 
ATOM     20  C   UNL     1       3.492   5.783  -4.136  1.00  0.00     0.044 A 
ATOM     21  C   UNL     1       5.806   5.367  -4.654  1.00  0.00     0.032 A 
ATOM     22  C   UNL     1       3.213   5.871  -5.500  1.00  0.00     0.068 A 
ATOM     23  C   UNL     1       5.536   5.447  -6.002  1.00  0.00     0.053 A 
ATOM     24  C   UNL     1       4.241   5.702  -6.439  1.00  0.00     0.169 A 
ATOM     25  C   UNL     1       1.984   6.121  -6.269  1.00  0.00     0.174 A 
ATOM     26  O   UNL     1       3.690   5.836  -7.663  1.00  0.00    -0.354 OA
ATOM     27  N   UNL     1       2.307   6.093  -7.532  1.00  0.00    -0.061 NA
BRANCH  25  28
ATOM     28  N   UNL     1       0.718   6.345  -5.747  1.00  0.00    -0.380 N 
ATOM     29  H   UNL     1       0.657   6.330  -4.719  1.00  0.00     0.158 HD
ATOM     30  H   UNL     1      -0.114   6.516  -6.331  1.00  0.00     0.158 HD
ENDBRANCH  25  28
ENDBRANCH  13  19
ENDBRANCH   1   8
BRANCH   4  31
ATOM     31  C   UNL     1      -1.710  -0.118  -0.480  1.00  0.00    -0.009 A 
ATOM     32  C   UNL     1      -2.744  -0.045   0.451  1.00  0.00     0.014 A 
ATOM     33  C   UNL     1      -1.716  -1.127  -1.442  1.00  0.00     0.009 A 
ATOM     34  C   UNL     1      -3.774  -0.963   0.409  1.00  0.00     0.010 A 
ATOM     35  C   UNL     1      -2.747  -2.044  -1.470  1.00  0.00     0.001 A 
ATOM     36  C   UNL     1      -3.774  -1.962  -0.547  1.00  0.00     0.001 A 
BRANCH  32  37
ATOM     37  C   UNL     1      -2.742   1.040   1.498  1.00  0.00     0.299 C 
BRANCH  37  38
ATOM     38  N   UNL     1      -1.720   0.721   2.528  1.00  0.00    -0.329 N 
ATOM     39  C   UNL     1      -2.202  -0.359   3.409  1.00  0.00     0.265 C 
ATOM     40  C   UNL     1      -1.440   1.914   3.348  1.00  0.00     0.294 C 
ATOM     41  H   UNL     1      -0.860   0.418   2.049  1.00  0.00     0.348 HD
ATOM     42  C   UNL     1      -1.605  -0.020   4.798  1.00  0.00     0.099 C 
ATOM     43  C   UNL     1      -1.714   1.527   4.817  1.00  0.00     0.174 C 
BRANCH  43  44
ATOM     44  O   UNL     1      -0.727   2.093   5.681  1.00  0.00    -0.387 OA
ATOM     45  H   UNL     1       0.171   1.829   5.360  1.00  0.00     0.211 HD
ENDBRANCH  43  44
ENDBRANCH  37  38
ENDBRANCH  32  37
ENDBRANCH   4  31
TORSDOF 7
