REMARK SMILES O=C1C2=C(Nc3[nH]n(-c4ccccc4)c(=O)c3[C@@H]2c2ccccc2)c2ccccc21
REMARK SMILES IDX 18 1 17 2 6 3 7 4 8 5 15 6 16 7 5 8 4 9 3 10 2 11 1 12 30 13
REMARK SMILES IDX 25 14 26 15 27 16 28 17 29 18 19 21 22 22 23 23 21 24 24 25
REMARK SMILES IDX 20 26 9 27 14 28 10 29 13 30 11 31 12 32
REMARK H PARENT 7 19 5 20
REMARK Flexibility Score: inf
ROOT
ATOM      1  C   UNL     1       4.865   2.680  -0.029  1.00  0.00     0.095 C 
ATOM      2  C   UNL     1       5.242   4.118   0.242  1.00  0.00     0.073 A 
ATOM      3  C   UNL     1       4.345   5.155   0.249  1.00  0.00     0.132 A 
ATOM      4  N   UNL     1       5.027   6.304   0.520  1.00  0.00    -0.275 N 
ATOM      5  N   UNL     1       6.380   5.972   0.693  1.00  0.00    -0.218 N 
ATOM      6  C   UNL     1       6.508   4.638   0.522  1.00  0.00     0.277 A 
ATOM      7  O   UNL     1       7.545   4.002   0.599  1.00  0.00    -0.267 OA
ATOM      8  N   UNL     1       2.994   4.993   0.014  1.00  0.00    -0.339 N 
ATOM      9  C   UNL     1       2.528   3.689   0.002  1.00  0.00     0.056 C 
ATOM     10  C   UNL     1       3.354   2.596  -0.014  1.00  0.00     0.037 C 
ATOM     11  C   UNL     1       2.577   1.413  -0.015  1.00  0.00     0.192 C 
ATOM     12  O   UNL     1       3.002   0.274  -0.027  1.00  0.00    -0.289 OA
ATOM     13  C   UNL     1       1.154   1.815   0.001  1.00  0.00     0.032 A 
ATOM     14  C   UNL     1       1.132   3.232   0.009  1.00  0.00     0.010 A 
ATOM     15  C   UNL     1      -0.066   3.927   0.023  1.00  0.00     0.011 A 
ATOM     16  C   UNL     1      -1.239   3.166   0.030  1.00  0.00     0.001 A 
ATOM     17  C   UNL     1      -1.215   1.792   0.017  1.00  0.00     0.001 A 
ATOM     18  C   UNL     1      -0.013   1.076   0.008  1.00  0.00     0.013 A 
ATOM     19  H   UNL     1       4.622   7.249   0.586  1.00  0.00     0.190 HD
ATOM     20  H   UNL     1       2.368   5.796  -0.143  1.00  0.00     0.168 HD
ENDROOT
BRANCH   1  21
ATOM     21  C   UNL     1       5.388   2.259  -1.378  1.00  0.00    -0.035 A 
ATOM     22  C   UNL     1       6.347   1.487  -3.853  1.00  0.00     0.000 A 
ATOM     23  C   UNL     1       5.488   2.565  -3.751  1.00  0.00     0.000 A 
ATOM     24  C   UNL     1       6.726   0.795  -2.718  1.00  0.00     0.000 A 
ATOM     25  C   UNL     1       5.005   2.948  -2.513  1.00  0.00     0.005 A 
ATOM     26  C   UNL     1       6.247   1.181  -1.480  1.00  0.00     0.005 A 
ENDBRANCH   1  21
BRANCH   5  27
ATOM     27  C   UNL     1       7.414   6.865   0.991  1.00  0.00     0.066 A 
ATOM     28  C   UNL     1       7.142   8.219   1.141  1.00  0.00     0.028 A 
ATOM     29  C   UNL     1       8.714   6.400   1.142  1.00  0.00     0.028 A 
ATOM     30  C   UNL     1       8.165   9.098   1.435  1.00  0.00     0.002 A 
ATOM     31  C   UNL     1       9.733   7.285   1.431  1.00  0.00     0.002 A 
ATOM     32  C   UNL     1       9.460   8.633   1.580  1.00  0.00     0.000 A 
ENDBRANCH   5  27
TORSDOF 2
