REMARK SMILES O=C(Nn1cnc2scc(-c3ccccc3)c2c1=O)c1cc(C2CC2)[nH]n1
REMARK SMILES IDX 3 1 2 2 1 3 4 5 10 6 17 7 9 8 7 9 18 10 8 11 6 12 19 13 5 14
REMARK SMILES IDX 11 15 14 16 15 17 13 18 16 19 12 20 20 21 27 22 21 23 26 24
REMARK SMILES IDX 22 25 23 27 25 28 24 29
REMARK H PARENT 3 4 26 26
REMARK Flexibility Score: inf
ROOT
ATOM      1  N   UNL     1       2.572   5.246  -3.776  1.00  0.00    -0.254 N 
ATOM      2  C   UNL     1       1.940   6.424  -3.604  1.00  0.00     0.290 C 
ATOM      3  O   UNL     1       2.107   7.059  -2.581  1.00  0.00    -0.266 OA
ATOM      4  H   UNL     1       2.431   4.708  -4.643  1.00  0.00     0.192 HD
ENDROOT
BRANCH   1   5
ATOM      5  N   UNL     1       3.421   4.754  -2.777  1.00  0.00    -0.205 N 
ATOM      6  C   UNL     1       3.659   2.163  -0.022  1.00  0.00     0.008 A 
ATOM      7  C   UNL     1       3.878   3.240  -0.980  1.00  0.00     0.086 A 
ATOM      8  C   UNL     1       4.642   1.869   0.864  1.00  0.00     0.076 A 
ATOM      9  C   UNL     1       5.126   3.877  -0.884  1.00  0.00     0.131 A 
ATOM     10  C   UNL     1       3.004   3.738  -1.999  1.00  0.00     0.281 A 
ATOM     11  S   UNL     1       5.931   3.028   0.449  1.00  0.00    -0.123 S 
ATOM     12  N   UNL     1       5.468   4.879  -1.691  1.00  0.00    -0.225 NA
ATOM     13  O   UNL     1       1.899   3.249  -2.159  1.00  0.00    -0.267 OA
ATOM     14  C   UNL     1       4.648   5.311  -2.612  1.00  0.00     0.227 A 
BRANCH   6  15
ATOM     15  C   UNL     1       2.384   1.407  -0.014  1.00  0.00    -0.017 A 
ATOM     16  C   UNL     1       0.002  -0.004   0.002  1.00  0.00     0.000 A 
ATOM     17  C   UNL     1       1.206  -0.685  -0.013  1.00  0.00     0.001 A 
ATOM     18  C   UNL     1      -0.017   1.379   0.010  1.00  0.00     0.001 A 
ATOM     19  C   UNL     1       2.397   0.013  -0.021  1.00  0.00     0.009 A 
ATOM     20  C   UNL     1       1.167   2.088   0.002  1.00  0.00     0.009 A 
ENDBRANCH   6  15
ENDBRANCH   1   5
BRANCH   2  21
ATOM     21  C   UNL     1       1.045   6.944  -4.658  1.00  0.00     0.151 A 
ATOM     22  N   UNL     1       0.777   6.368  -5.813  1.00  0.00    -0.170 NA
ATOM     23  C   UNL     1       0.317   8.156  -4.622  1.00  0.00     0.059 A 
ATOM     24  N   UNL     1      -0.044   7.092  -6.486  1.00  0.00    -0.281 N 
ATOM     25  C   UNL     1      -0.356   8.209  -5.795  1.00  0.00     0.039 A 
ATOM     26  H   UNL     1      -0.411   6.854  -7.418  1.00  0.00     0.190 HD
BRANCH  25  27
ATOM     27  C   UNL     1      -1.281   9.310  -6.247  1.00  0.00     0.038 C 
ATOM     28  C   UNL     1      -1.297   9.652  -7.738  1.00  0.00     0.010 C 
ATOM     29  C   UNL     1      -2.482   8.915  -7.109  1.00  0.00     0.010 C 
ENDBRANCH  25  27
ENDBRANCH   2  21
TORSDOF 4
