REMARK SMILES CCc1ccc2nc(N3CCC(C(=O)NCCCN4CCC([NH+]5CCCCC5)CC4)CC3)sc2c1
REMARK SMILES IDX 16 1 15 2 13 3 14 4 12 6 9 7 32 8 10 9 31 10 11 11 8 12 3 13
REMARK SMILES IDX 35 14 4 15 34 16 5 17 6 18 33 19 7 20 2 21 1 22 17 23 18 24
REMARK SMILES IDX 19 25 30 26 20 27 29 28 21 29 22 30 23 31 28 32 24 33 27 35
REMARK SMILES IDX 25 36 26 37
REMARK H PARENT 15 5 23 34
REMARK Flexibility Score: inf
ROOT
ATOM      1  C   UNL     1       2.422   1.183  -0.015  1.00  0.00     0.117 C 
ENDROOT
BRANCH   1   2
ATOM      2  N   UNL     1       1.143   1.898   0.001  1.00  0.00    -0.356 N 
ATOM      3  C   UNL     1      -0.014   1.209   0.009  1.00  0.00     0.223 C 
ATOM      4  O   UNL     1       0.002  -0.004   0.002  1.00  0.00    -0.275 OA
ATOM      5  H   UNL     1       1.129   2.928   0.007  1.00  0.00     0.163 HD
BRANCH   3   6
ATOM      6  C   UNL     1      -1.330   1.944   0.019  1.00  0.00     0.082 C 
ATOM      7  N   UNL     1      -3.851   2.500   1.313  1.00  0.00    -0.348 N 
ATOM      8  C   UNL     1      -2.783   3.508   1.313  1.00  0.00     0.119 C 
ATOM      9  C   UNL     1      -3.812   1.686   0.091  1.00  0.00     0.119 C 
ATOM     10  C   UNL     1      -1.421   2.811   1.278  1.00  0.00     0.035 C 
ATOM     11  C   UNL     1      -2.481   0.935   0.019  1.00  0.00     0.035 C 
BRANCH   7  12
ATOM     12  C   UNL     1      -5.088   3.089   1.475  1.00  0.00     0.186 A 
ATOM     13  C   UNL     1      -9.566   5.084   1.856  1.00  0.00    -0.047 A 
ATOM     14  C   UNL     1      -8.401   5.117   2.602  1.00  0.00     0.025 A 
ATOM     15  C   UNL     1      -9.604   4.337   0.689  1.00  0.00     0.006 A 
ATOM     16  C   UNL     1      -7.304   4.411   2.176  1.00  0.00     0.057 A 
ATOM     17  C   UNL     1      -8.513   3.629   0.256  1.00  0.00     0.030 A 
ATOM     18  C   UNL     1      -7.306   3.639   0.992  1.00  0.00     0.084 A 
ATOM     19  S   UNL     1      -5.655   4.160   2.789  1.00  0.00    -0.097 S 
ATOM     20  N   UNL     1      -6.150   3.001   0.707  1.00  0.00    -0.220 NA
BRANCH  13  21
ATOM     21  C   UNL     1     -10.781   5.853   2.308  1.00  0.00     0.032 C 
ATOM     22  C   UNL     1     -10.744   7.261   1.712  1.00  0.00     0.009 C 
ENDBRANCH  13  21
ENDBRANCH   7  12
ENDBRANCH   3   6
ENDBRANCH   1   2
BRANCH   1  23
ATOM     23  C   UNL     1       3.571   2.193  -0.020  1.00  0.00     0.037 C 
BRANCH  23  24
ATOM     24  C   UNL     1       4.907   1.446  -0.037  1.00  0.00     0.086 C 
BRANCH  24  25
ATOM     25  N   UNL     1       6.010   2.416  -0.042  1.00  0.00    -0.303 NA
ATOM     26  C   UNL     1       7.299   1.748   0.180  1.00  0.00     0.090 C 
ATOM     27  C   UNL     1       5.784   3.476   0.948  1.00  0.00     0.090 C 
ATOM     28  C   UNL     1       8.434   2.762   0.024  1.00  0.00     0.080 C 
ATOM     29  C   UNL     1       6.874   4.542   0.815  1.00  0.00     0.080 C 
ATOM     30  C   UNL     1       8.244   3.894   1.036  1.00  0.00     0.186 C 
BRANCH  30  31
ATOM     31  N   UNL     1       9.298   4.901   0.852  1.00  0.00    -0.332 N 
ATOM     32  C   UNL     1       9.146   6.004   1.809  1.00  0.00     0.262 C 
ATOM     33  C   UNL     1      10.630   4.291   0.952  1.00  0.00     0.262 C 
ATOM     34  H   UNL     1       9.201   5.292  -0.096  1.00  0.00     0.348 HD
ATOM     35  C   UNL     1      10.168   7.098   1.495  1.00  0.00     0.062 C 
ATOM     36  C   UNL     1      11.697   5.335   0.612  1.00  0.00     0.062 C 
ATOM     37  C   UNL     1      11.580   6.512   1.583  1.00  0.00     0.012 C 
ENDBRANCH  30  31
ENDBRANCH  24  25
ENDBRANCH  23  24
ENDBRANCH   1  23
TORSDOF 8
