REMARK SMILES Cc1ccc(-c2n[nH]/c(=N\c3cccc4ccccc34)c3ccccc23)cc1S(=O)(=O)N1CCCCC1
REMARK SMILES IDX 1 1 2 2 3 3 4 4 5 5 27 6 28 7 29 8 30 9 31 10 32 11 37 12
REMARK SMILES IDX 33 13 36 14 34 15 35 16 6 17 7 18 26 19 8 20 21 21 25 22
REMARK SMILES IDX 9 23 22 25 24 26 10 27 23 28 11 29 20 30 12 31 15 32 19 33
REMARK SMILES IDX 13 34 14 35 16 36 18 37 17 38
REMARK H PARENT 8 24
REMARK Flexibility Score: inf
ROOT
ATOM      1  C   UNL     1       1.808  -2.504   0.076  1.00  0.00     0.046 C 
ATOM      2  C   UNL     1       3.156  -2.112  -0.472  1.00  0.00    -0.031 A 
ATOM      3  C   UNL     1       3.792  -2.932  -1.387  1.00  0.00     0.005 A 
ATOM      4  C   UNL     1       5.029  -2.582  -1.888  1.00  0.00     0.011 A 
ATOM      5  C   UNL     1       5.636  -1.396  -1.474  1.00  0.00     0.004 A 
ATOM      6  C   UNL     1       4.987  -0.572  -0.555  1.00  0.00     0.032 A 
ATOM      7  C   UNL     1       3.750  -0.933  -0.061  1.00  0.00     0.086 A 
ENDROOT
BRANCH   7   8
ATOM      8  S   UNL     1       2.929   0.107   1.100  1.00  0.00     0.243 S 
ATOM      9  O   UNL     1       3.796   1.206   1.345  1.00  0.00    -0.207 OA
ATOM     10  O   UNL     1       2.458  -0.738   2.140  1.00  0.00    -0.207 OA
BRANCH   8  11
ATOM     11  N   UNL     1       1.589   0.721   0.346  1.00  0.00    -0.198 NA
ATOM     12  C   UNL     1       1.677   1.952  -0.452  1.00  0.00     0.102 C 
ATOM     13  C   UNL     1       0.290   0.045   0.461  1.00  0.00     0.102 C 
ATOM     14  C   UNL     1       1.112   1.676  -1.849  1.00  0.00     0.017 C 
ATOM     15  C   UNL     1      -0.260  -0.209  -0.946  1.00  0.00     0.017 C 
ATOM     16  C   UNL     1      -0.304   1.111  -1.719  1.00  0.00     0.003 C 
ENDBRANCH   8  11
ENDBRANCH   7   8
BRANCH   5  17
ATOM     17  C   UNL     1       6.964  -1.014  -2.007  1.00  0.00     0.099 A 
ATOM     18  N   UNL     1       7.813  -0.360  -1.251  1.00  0.00    -0.173 NA
ATOM     19  C   UNL     1       7.336  -1.374  -3.385  1.00  0.00     0.014 A 
ATOM     20  N   UNL     1       9.070   0.025  -1.741  1.00  0.00    -0.260 N 
ATOM     21  C   UNL     1       8.682  -1.218  -3.783  1.00  0.00     0.028 A 
ATOM     22  C   UNL     1       6.404  -1.855  -4.301  1.00  0.00     0.011 A 
ATOM     23  C   UNL     1       9.629  -0.705  -2.774  1.00  0.00     0.154 A 
ATOM     24  H   UNL     1       9.567   0.834  -1.339  1.00  0.00     0.192 HD
ATOM     25  C   UNL     1       9.073  -1.547  -5.075  1.00  0.00     0.013 A 
ATOM     26  C   UNL     1       6.811  -2.179  -5.578  1.00  0.00     0.001 A 
ATOM     27  N   UNL     1      10.928  -0.929  -2.854  1.00  0.00    -0.229 NA
ATOM     28  C   UNL     1       8.137  -2.032  -5.962  1.00  0.00     0.001 A 
BRANCH  27  29
ATOM     29  C   UNL     1      11.775  -0.344  -1.962  1.00  0.00     0.073 A 
ATOM     30  C   UNL     1      12.309   0.995  -2.207  1.00  0.00     0.007 A 
ATOM     31  C   UNL     1      12.156  -1.010  -0.802  1.00  0.00     0.029 A 
ATOM     32  C   UNL     1      13.183   1.568  -1.251  1.00  0.00    -0.016 A 
ATOM     33  C   UNL     1      11.971   1.718  -3.357  1.00  0.00     0.011 A 
ATOM     34  C   UNL     1      13.020  -0.412   0.103  1.00  0.00     0.003 A 
ATOM     35  C   UNL     1      13.525   0.836  -0.102  1.00  0.00     0.009 A 
ATOM     36  C   UNL     1      13.696   2.857  -1.477  1.00  0.00     0.009 A 
ATOM     37  C   UNL     1      12.491   2.964  -3.546  1.00  0.00     0.001 A 
ATOM     38  C   UNL     1      13.355   3.528  -2.611  1.00  0.00     0.001 A 
ENDBRANCH  27  29
ENDBRANCH   5  17
TORSDOF 4
