REMARK SMILES C[C@H](Sc1nc2scc(-c3cccs3)c2c(=O)n1C)C(=O)NCCc1c[nH]c2ccccc12
REMARK SMILES IDX 1 1 2 2 20 3 21 4 22 5 23 7 24 8 25 9 33 10 26 11 28 12
REMARK SMILES IDX 32 13 27 14 29 15 31 16 30 18 3 19 4 20 18 21 5 22 16 23
REMARK SMILES IDX 19 24 6 25 15 26 17 27 7 28 9 29 8 30 10 31 14 32 11 33
REMARK SMILES IDX 13 34 12 35
REMARK H PARENT 22 6 27 17
REMARK Flexibility Score: inf
ROOT
ATOM      1  C   UNL     1       1.026  -5.288  -3.263  1.00  0.00     0.030 C 
ATOM      2  C   UNL     1       2.530  -5.118  -3.041  1.00  0.00     0.140 C 
ENDROOT
BRANCH   2   3
ATOM      3  C   UNL     1       3.269  -6.229  -3.740  1.00  0.00     0.233 C 
ATOM      4  O   UNL     1       3.787  -6.029  -4.818  1.00  0.00    -0.274 OA
ATOM      5  N   UNL     1       3.356  -7.446  -3.167  1.00  0.00    -0.355 N 
ATOM      6  H   UNL     1       2.916  -7.617  -2.251  1.00  0.00     0.163 HD
BRANCH   5   7
ATOM      7  C   UNL     1       4.075  -8.527  -3.846  1.00  0.00     0.120 C 
BRANCH   7   8
ATOM      8  C   UNL     1       4.024  -9.792  -2.988  1.00  0.00     0.059 C 
BRANCH   8   9
ATOM      9  C   UNL     1       4.763 -10.903  -3.687  1.00  0.00    -0.021 A 
ATOM     10  C   UNL     1       6.205 -11.160  -3.633  1.00  0.00     0.003 A 
ATOM     11  C   UNL     1       4.226 -11.850  -4.473  1.00  0.00     0.087 A 
ATOM     12  C   UNL     1       6.428 -12.294  -4.435  1.00  0.00     0.046 A 
ATOM     13  C   UNL     1       7.277 -10.538  -2.991  1.00  0.00     0.010 A 
ATOM     14  N   UNL     1       5.206 -12.686  -4.933  1.00  0.00    -0.361 N 
ATOM     15  C   UNL     1       7.723 -12.782  -4.579  1.00  0.00     0.026 A 
ATOM     16  C   UNL     1       8.541 -11.035  -3.146  1.00  0.00     0.001 A 
ATOM     17  H   UNL     1       5.053 -13.490  -5.559  1.00  0.00     0.166 HD
ATOM     18  C   UNL     1       8.767 -12.153  -3.936  1.00  0.00     0.002 A 
ENDBRANCH   8   9
ENDBRANCH   7   8
ENDBRANCH   5   7
ENDBRANCH   2   3
BRANCH   2  19
ATOM     19  S   UNL     1       3.063  -3.523  -3.711  1.00  0.00    -0.075 SA
BRANCH  19  20
ATOM     20  C   UNL     1       2.182  -2.433  -2.643  1.00  0.00     0.172 A 
ATOM     21  N   UNL     1       2.305  -1.084  -2.808  1.00  0.00    -0.290 N 
ATOM     22  N   UNL     1       1.421  -2.931  -1.689  1.00  0.00    -0.213 NA
ATOM     23  C   UNL     1       1.647  -0.222  -2.011  1.00  0.00     0.263 A 
ATOM     24  C   UNL     1       3.169  -0.565  -3.871  1.00  0.00     0.156 C 
ATOM     25  C   UNL     1       0.742  -2.133  -0.873  1.00  0.00     0.132 A 
ATOM     26  C   UNL     1       0.807  -0.732  -0.975  1.00  0.00     0.085 A 
ATOM     27  O   UNL     1       1.768   0.981  -2.171  1.00  0.00    -0.268 OA
ATOM     28  S   UNL     1      -0.372  -2.405   0.481  1.00  0.00    -0.123 S 
ATOM     29  C   UNL     1       0.002  -0.004   0.002  1.00  0.00     0.017 A 
ATOM     30  C   UNL     1      -0.730  -0.710   0.898  1.00  0.00     0.077 A 
BRANCH  29  31
ATOM     31  C   UNL     1      -0.018   1.474   0.010  1.00  0.00     0.036 A 
ATOM     32  S   UNL     1       1.353   2.617   0.003  1.00  0.00    -0.144 S 
ATOM     33  C   UNL     1      -1.093   2.322   0.019  1.00  0.00     0.020 A 
ATOM     34  C   UNL     1       0.415   4.136   0.019  1.00  0.00     0.065 A 
ATOM     35  C   UNL     1      -0.863   3.682   0.029  1.00  0.00     0.012 A 
ENDBRANCH  29  31
ENDBRANCH  19  20
ENDBRANCH   2  19
TORSDOF 7
