REMARK SMILES CC/N=c1\scc(-c2ccc(O)c(C(N)=O)c2)n1/N=C/c1ccc(C#N)cc1
REMARK SMILES IDX 3 1 4 2 18 3 7 4 6 5 5 6 2 7 1 8 19 9 20 10 21 11 28 12
REMARK SMILES IDX 22 13 27 14 23 15 24 16 25 17 26 18 8 19 17 20 9 21 13 22
REMARK SMILES IDX 10 23 11 24 14 25 16 26 15 27 12 30
REMARK H PARENT 15 28 15 29 12 31
REMARK Flexibility Score: inf
ROOT
ATOM      1  N   UNL     1       0.245   0.134   0.031  1.00  0.00    -0.258 NA
ATOM      2  C   UNL     1      -0.226  -0.503   1.073  1.00  0.00     0.206 A 
ATOM      3  N   UNL     1      -0.299  -1.863   1.305  1.00  0.00    -0.205 N 
ATOM      4  C   UNL     1      -0.840  -2.294   2.487  1.00  0.00     0.085 A 
ATOM      5  C   UNL     1      -1.284  -1.393   3.387  1.00  0.00     0.097 A 
ATOM      6  S   UNL     1      -0.935   0.157   2.574  1.00  0.00    -0.103 S 
ENDROOT
BRANCH   1   7
ATOM      7  C   UNL     1       0.223   1.599  -0.004  1.00  0.00     0.142 C 
ATOM      8  C   UNL     1       1.653   2.126  -0.141  1.00  0.00     0.029 C 
ENDBRANCH   1   7
BRANCH   3   9
ATOM      9  N   UNL     1       0.169  -2.779   0.354  1.00  0.00    -0.173 NA
ATOM     10  C   UNL     1       0.251  -2.433  -0.895  1.00  0.00     0.142 C 
BRANCH  10  11
ATOM     11  C   UNL     1       0.863  -3.348  -1.874  1.00  0.00    -0.005 A 
ATOM     12  C   UNL     1       0.952  -2.976  -3.219  1.00  0.00     0.011 A 
ATOM     13  C   UNL     1       1.360  -4.588  -1.457  1.00  0.00     0.011 A 
ATOM     14  C   UNL     1       1.519  -3.825  -4.126  1.00  0.00     0.020 A 
ATOM     15  C   UNL     1       1.920  -5.439  -2.365  1.00  0.00     0.020 A 
ATOM     16  C   UNL     1       2.010  -5.066  -3.710  1.00  0.00     0.052 A 
BRANCH  16  17
ATOM     17  C   UNL     1       2.604  -5.957  -4.662  1.00  0.00     0.099 C 
ATOM     18  N   UNL     1       3.075  -6.663  -5.417  1.00  0.00    -0.192 NA
ENDBRANCH  16  17
ENDBRANCH  10  11
ENDBRANCH   3   9
BRANCH   4  19
ATOM     19  C   UNL     1      -0.937  -3.742   2.775  1.00  0.00     0.002 A 
ATOM     20  C   UNL     1      -0.845  -4.198   4.087  1.00  0.00     0.028 A 
ATOM     21  C   UNL     1      -1.128  -4.652   1.731  1.00  0.00     0.014 A 
ATOM     22  C   UNL     1      -0.938  -5.564   4.353  1.00  0.00     0.082 A 
ATOM     23  C   UNL     1      -1.214  -6.002   1.993  1.00  0.00     0.048 A 
ATOM     24  C   UNL     1      -1.123  -6.468   3.297  1.00  0.00     0.128 A 
BRANCH  22  25
ATOM     25  C   UNL     1      -0.842  -6.056   5.741  1.00  0.00     0.252 C 
ATOM     26  O   UNL     1      -0.922  -7.248   5.970  1.00  0.00    -0.269 OA
ATOM     27  N   UNL     1      -0.664  -5.186   6.754  1.00  0.00    -0.365 N 
ATOM     28  H   UNL     1      -0.595  -4.176   6.559  1.00  0.00     0.159 HD
ATOM     29  H   UNL     1      -0.597  -5.529   7.722  1.00  0.00     0.159 HD
ENDBRANCH  22  25
BRANCH  24  30
ATOM     30  O   UNL     1      -1.214  -7.798   3.550  1.00  0.00    -0.507 OA
ATOM     31  H   UNL     1      -0.503  -8.211   3.000  1.00  0.00     0.293 HD
ENDBRANCH  24  30
ENDBRANCH   4  19
TORSDOF 7
