REMARK SMILES O=C(NCc1ccccc1)c1cccc([N-]C(=S)NC(=O)c2ccccc2OCCOc2ccccc2)c1
REMARK SMILES IDX 19 1 20 2 21 3 17 5 18 6 16 7 15 8 11 9 38 10 12 11 13 12
REMARK SMILES IDX 14 13 2 14 3 15 1 17 4 18 5 19 8 20 9 21 7 22 10 23 6 24
REMARK SMILES IDX 22 25 27 26 23 27 26 28 24 29 25 30 28 31 29 32 30 33 31 34
REMARK SMILES IDX 32 35 37 36 33 37 36 38 34 39 35 40
REMARK H PARENT 19 4 3 16
REMARK Flexibility Score: inf
ROOT
ATOM      1  N   UNL     1      -0.632   1.770   9.630  1.00  0.00    -0.415 N 
ATOM      2  C   UNL     1      -1.207   2.290  10.732  1.00  0.00     0.180 C 
ATOM      3  O   UNL     1      -2.206   2.976  10.631  1.00  0.00    -0.293 OA
ATOM      4  H   UNL     1       0.214   1.189   9.716  1.00  0.00     0.030 HD
ENDROOT
BRANCH   1   5
ATOM      5  C   UNL     1      -1.164   2.010   8.415  1.00  0.00     0.010 C 
ATOM      6  S   UNL     1      -2.570   2.976   8.273  1.00  0.00    -0.090 S 
BRANCH   5   7
ATOM      7  N   UNL     1      -0.589   1.491   7.313  1.00  0.00    -0.427 NA
BRANCH   7   8
ATOM      8  C   UNL     1      -1.070   1.833   6.045  1.00  0.00    -0.040 A 
ATOM      9  C   UNL     1      -1.898   3.482   4.501  1.00  0.00     0.040 A 
ATOM     10  C   UNL     1      -1.418   3.146   5.766  1.00  0.00     0.017 A 
ATOM     11  C   UNL     1      -2.031   2.493   3.525  1.00  0.00     0.014 A 
ATOM     12  C   UNL     1      -1.677   1.190   3.810  1.00  0.00     0.001 A 
ATOM     13  C   UNL     1      -1.201   0.857   5.064  1.00  0.00     0.004 A 
BRANCH   9  14
ATOM     14  C   UNL     1      -2.270   4.880   4.196  1.00  0.00     0.251 C 
ATOM     15  N   UNL     1      -2.734   5.203   2.973  1.00  0.00    -0.348 N 
ATOM     16  H   UNL     1      -2.829   4.475   2.250  1.00  0.00     0.164 HD
ATOM     17  O   UNL     1      -2.158   5.739   5.049  1.00  0.00    -0.269 OA
BRANCH  15  18
ATOM     18  C   UNL     1      -3.103   6.588   2.671  1.00  0.00     0.152 C 
BRANCH  18  19
ATOM     19  C   UNL     1      -3.587   6.679   1.246  1.00  0.00    -0.029 A 
ATOM     20  C   UNL     1      -4.476   6.848  -1.366  1.00  0.00     0.000 A 
ATOM     21  C   UNL     1      -3.135   7.024  -1.079  1.00  0.00     0.000 A 
ATOM     22  C   UNL     1      -5.373   6.588  -0.347  1.00  0.00     0.000 A 
ATOM     23  C   UNL     1      -2.692   6.945   0.228  1.00  0.00     0.005 A 
ATOM     24  C   UNL     1      -4.928   6.503   0.960  1.00  0.00     0.005 A 
ENDBRANCH  18  19
ENDBRANCH  15  18
ENDBRANCH   9  14
ENDBRANCH   7   8
ENDBRANCH   5   7
ENDBRANCH   1   5
BRANCH   2  25
ATOM     25  C   UNL     1      -0.625   2.027  12.062  1.00  0.00     0.060 A 
ATOM     26  C   UNL     1      -1.220   2.566  13.211  1.00  0.00     0.130 A 
ATOM     27  C   UNL     1       0.519   1.235  12.183  1.00  0.00     0.015 A 
ATOM     28  C   UNL     1      -0.664   2.312  14.456  1.00  0.00     0.047 A 
ATOM     29  C   UNL     1       1.061   0.997  13.428  1.00  0.00     0.001 A 
ATOM     30  C   UNL     1       0.470   1.531  14.561  1.00  0.00     0.004 A 
BRANCH  26  31
ATOM     31  O   UNL     1      -2.335   3.332  13.106  1.00  0.00    -0.489 OA
BRANCH  31  32
ATOM     32  C   UNL     1      -2.885   3.846  14.320  1.00  0.00     0.271 C 
BRANCH  32  33
ATOM     33  C   UNL     1      -4.129   4.679  14.004  1.00  0.00     0.271 C 
BRANCH  33  34
ATOM     34  O   UNL     1      -5.143   3.833  13.458  1.00  0.00    -0.490 OA
BRANCH  34  35
ATOM     35  C   UNL     1      -6.321   4.421  13.120  1.00  0.00     0.119 A 
ATOM     36  C   UNL     1      -7.349   3.659  12.584  1.00  0.00     0.046 A 
ATOM     37  C   UNL     1      -6.499   5.783  13.315  1.00  0.00     0.046 A 
ATOM     38  C   UNL     1      -8.545   4.259  12.242  1.00  0.00     0.004 A 
ATOM     39  C   UNL     1      -7.695   6.379  12.965  1.00  0.00     0.004 A 
ATOM     40  C   UNL     1      -8.718   5.617  12.432  1.00  0.00     0.000 A 
ENDBRANCH  34  35
ENDBRANCH  33  34
ENDBRANCH  32  33
ENDBRANCH  31  32
ENDBRANCH  26  31
ENDBRANCH   2  25
TORSDOF 12
