REMARK SMILES Cc1cc(C[NH2+]Cc2ccc(N3CC[NH+](C)CC3)nc2)c(C)n1-c1cc(Cl)cc(Cl)c1
REMARK SMILES IDX 6 1 5 4 4 5 1 6 2 7 23 8 3 9 21 10 22 11 24 12 25 13 31 14
REMARK SMILES IDX 26 15 29 16 28 17 27 18 30 19 7 20 8 21 20 22 9 23 19 24
REMARK SMILES IDX 10 25 11 26 12 27 18 28 13 29 17 30 14 31 15 32 16 33
REMARK H PARENT 6 2 6 3 15 34
REMARK Flexibility Score: inf
ROOT
ATOM      1  N   UNL     1       4.301   8.189  -1.305  1.00  0.00    -0.339 N 
ATOM      2  H   UNL     1       3.325   8.218  -1.632  1.00  0.00     0.346 HD
ATOM      3  H   UNL     1       4.326   8.457  -0.311  1.00  0.00     0.346 HD
ENDROOT
BRANCH   1   4
ATOM      4  C   UNL     1       4.822   6.824  -1.453  1.00  0.00     0.299 C 
BRANCH   4   5
ATOM      5  C   UNL     1       3.979   5.873  -0.642  1.00  0.00     0.027 A 
ATOM      6  C   UNL     1       3.190   3.787   2.300  1.00  0.00     0.065 C 
ATOM      7  C   UNL     1       3.281   4.551   1.004  1.00  0.00     0.020 A 
ATOM      8  N   UNL     1       2.351   4.546   0.004  1.00  0.00    -0.318 N 
ATOM      9  C   UNL     1       4.296   5.356   0.630  1.00  0.00     0.033 A 
ATOM     10  C   UNL     1       2.785   5.362  -1.001  1.00  0.00     0.029 A 
ATOM     11  C   UNL     1       2.055   5.641  -2.290  1.00  0.00     0.065 C 
BRANCH   8  12
ATOM     12  C   UNL     1       1.147   3.827   0.011  1.00  0.00     0.048 A 
ATOM     13  C   UNL     1       1.167   2.439   0.004  1.00  0.00     0.047 A 
ATOM     14  C   UNL     1      -0.066   4.502   0.026  1.00  0.00     0.047 A 
ATOM     15  C   UNL     1      -0.021   1.732   0.012  1.00  0.00     0.044 A 
ATOM     16  C   UNL     1      -1.251   3.790   0.033  1.00  0.00     0.044 A 
ATOM     17  C   UNL     1      -1.229   2.407   0.021  1.00  0.00     0.041 A 
ATOM     18  Cl  UNL     1       0.002  -0.004   0.002  1.00  0.00    -0.084 Cl
ATOM     19  Cl  UNL     1      -2.769   4.633   0.051  1.00  0.00    -0.084 Cl
ENDBRANCH   8  12
ENDBRANCH   4   5
ENDBRANCH   1   4
BRANCH   1  20
ATOM     20  C   UNL     1       5.100   9.145  -2.083  1.00  0.00     0.299 C 
BRANCH  20  21
ATOM     21  C   UNL     1       4.536  10.532  -1.907  1.00  0.00     0.025 A 
ATOM     22  C   UNL     1       3.567  11.005  -2.768  1.00  0.00     0.123 A 
ATOM     23  C   UNL     1       4.991  11.348  -0.879  1.00  0.00     0.015 A 
ATOM     24  N   UNL     1       3.063  12.216  -2.620  1.00  0.00    -0.239 NA
ATOM     25  C   UNL     1       4.448  12.613  -0.752  1.00  0.00     0.047 A 
ATOM     26  C   UNL     1       3.470  13.024  -1.653  1.00  0.00     0.128 A 
BRANCH  26  27
ATOM     27  N   UNL     1       2.915  14.293  -1.537  1.00  0.00    -0.345 N 
ATOM     28  C   UNL     1       1.907  14.524  -2.580  1.00  0.00     0.179 C 
ATOM     29  C   UNL     1       2.341  14.496  -0.199  1.00  0.00     0.179 C 
ATOM     30  C   UNL     1       1.379  15.957  -2.467  1.00  0.00     0.283 C 
ATOM     31  C   UNL     1       1.813  15.928  -0.086  1.00  0.00     0.283 C 
ATOM     32  N   UNL     1       0.805  16.160  -1.130  1.00  0.00    -0.334 N 
ATOM     33  C   UNL     1       0.219  17.501  -1.007  1.00  0.00     0.332 C 
ATOM     34  H   UNL     1       0.049  15.472  -1.001  1.00  0.00     0.347 HD
ENDBRANCH  26  27
ENDBRANCH  20  21
ENDBRANCH   1  20
TORSDOF 6
