REMARK SMILES O=C(CSC(=S)N1C[C@H]2C[C@@H](C1)c1cccc(=O)n1C2)c1ccc2c(c1)Cc1ccccc1-2
REMARK SMILES IDX 3 1 2 2 1 3 21 4 30 5 29 6 31 7 28 8 32 9 33 10 27 11 24 12
REMARK SMILES IDX 25 13 23 14 26 15 22 16 4 17 5 18 6 19 7 20 12 21 8 22 11 23
REMARK SMILES IDX 9 24 10 25 13 26 20 27 19 28 14 29 17 30 15 31 16 32 18 33
REMARK H PARENT
REMARK Flexibility Score: inf
ROOT
ATOM      1  C   UNL     1      -0.325   2.494  -5.250  1.00  0.00     0.158 C 
ENDROOT
BRANCH   1   2
ATOM      2  C   UNL     1       0.737   1.751  -6.019  1.00  0.00     0.173 C 
ATOM      3  O   UNL     1       1.022   0.612  -5.714  1.00  0.00    -0.293 OA
BRANCH   2   4
ATOM      4  C   UNL     1       1.428   2.407  -7.138  1.00  0.00     0.019 A 
ATOM      5  C   UNL     1       5.325   4.383 -12.522  1.00  0.00     0.000 A 
ATOM      6  C   UNL     1       5.284   3.188 -11.826  1.00  0.00     0.005 A 
ATOM      7  C   UNL     1       4.487   5.424 -12.163  1.00  0.00     0.001 A 
ATOM      8  C   UNL     1       4.409   3.031 -10.773  1.00  0.00    -0.036 A 
ATOM      9  C   UNL     1       3.609   5.277 -11.110  1.00  0.00     0.009 A 
ATOM     10  C   UNL     1       3.562   4.073 -10.403  1.00  0.00    -0.015 A 
ATOM     11  C   UNL     1       4.139   1.873  -9.844  1.00  0.00     0.072 C 
ATOM     12  C   UNL     1       2.729   3.649  -9.251  1.00  0.00    -0.015 A 
ATOM     13  C   UNL     1       3.057   2.340  -8.901  1.00  0.00    -0.035 A 
ATOM     14  C   UNL     1       1.742   4.331  -8.532  1.00  0.00     0.010 A 
ATOM     15  C   UNL     1       2.416   1.719  -7.855  1.00  0.00     0.016 A 
ATOM     16  C   UNL     1       1.098   3.719  -7.496  1.00  0.00     0.012 A 
ENDBRANCH   2   4
ENDBRANCH   1   2
BRANCH   1  17
ATOM     17  S   UNL     1      -0.982   1.427  -3.943  1.00  0.00    -0.089 SA
BRANCH  17  18
ATOM     18  C   UNL     1      -2.167   2.516  -3.226  1.00  0.00     0.136 C 
ATOM     19  S   UNL     1      -2.372   4.094  -3.858  1.00  0.00    -0.053 S 
BRANCH  18  20
ATOM     20  N   UNL     1      -2.912   2.106  -2.180  1.00  0.00    -0.356 N 
ATOM     21  C   UNL     1      -2.749   0.754  -1.625  1.00  0.00     0.127 C 
ATOM     22  C   UNL     1      -3.904   3.000  -1.571  1.00  0.00     0.123 C 
ATOM     23  C   UNL     1      -2.457   0.905  -0.122  1.00  0.00     0.056 C 
ATOM     24  C   UNL     1      -3.711   3.047  -0.061  1.00  0.00     0.029 C 
ATOM     25  C   UNL     1      -3.635   1.637   0.526  1.00  0.00     0.019 C 
ATOM     26  C   UNL     1      -1.202   1.734   0.017  1.00  0.00     0.026 A 
ATOM     27  C   UNL     1      -2.475   3.836   0.329  1.00  0.00     0.131 C 
ATOM     28  N   UNL     1      -1.239   3.084   0.110  1.00  0.00    -0.312 N 
ATOM     29  C   UNL     1      -0.013   1.076   0.008  1.00  0.00     0.022 A 
ATOM     30  C   UNL     1      -0.089   3.797   0.026  1.00  0.00     0.250 A 
ATOM     31  C   UNL     1       1.193   1.786   0.000  1.00  0.00     0.007 A 
ATOM     32  C   UNL     1       1.153   3.150  -0.006  1.00  0.00     0.072 A 
ATOM     33  O   UNL     1      -0.137   5.016  -0.022  1.00  0.00    -0.269 OA
ENDBRANCH  18  20
ENDBRANCH  17  18
ENDBRANCH   1  17
TORSDOF 5
