REMARK SMILES CC(C)(C)NC(=O)[C@H]1C[C@@H]2CCCC[C@@H]2C[N@@H+]1C[C@@H](O)CCc1ccccc1C(=O)N(CCO)C(C)(C)C
REMARK SMILES IDX 22 1 21 2 19 3 18 4 17 5 8 6 9 7 16 8 10 10 15 11 11 12
REMARK SMILES IDX 14 13 12 14 13 15 6 16 5 17 7 19 2 20 1 21 3 22 4 23 20 24
REMARK SMILES IDX 23 26 28 27 24 28 27 29 25 30 26 31 29 32 30 33 31 34 32 35
REMARK SMILES IDX 33 36 34 37 35 39 36 40 37 41 38 42
REMARK H PARENT 17 9 5 18 20 25 34 38
REMARK Flexibility Score: inf
ROOT
ATOM      1  C   UNL     1       2.711   2.269   0.812  1.00  0.00     0.039 C 
ENDROOT
BRANCH   1   2
ATOM      2  C   UNL     1       1.623   1.346   0.262  1.00  0.00     0.042 C 
BRANCH   2   3
ATOM      3  C   UNL     1       2.057  -0.111   0.431  1.00  0.00     0.169 C 
BRANCH   3   4
ATOM      4  C   UNL     1       0.918  -1.036  -0.003  1.00  0.00     0.294 C 
BRANCH   4   5
ATOM      5  N   UNL     1       1.289  -2.431   0.270  1.00  0.00    -0.322 N 
ATOM      6  C   UNL     1       0.337  -3.360  -0.351  1.00  0.00     0.274 C 
ATOM      7  C   UNL     1       0.828  -4.798  -0.168  1.00  0.00     0.079 C 
ATOM      8  C   UNL     1       1.402  -2.672   1.715  1.00  0.00     0.266 C 
ATOM      9  H   UNL     1       2.213  -2.603  -0.150  1.00  0.00     0.348 HD
ATOM     10  C   UNL     1       0.957  -5.098   1.329  1.00  0.00     0.004 C 
ATOM     11  C   UNL     1       1.924  -4.090   1.955  1.00  0.00     0.048 C 
ATOM     12  C   UNL     1      -0.418  -4.963   1.988  1.00  0.00     0.004 C 
ATOM     13  C   UNL     1       2.041  -4.349   3.457  1.00  0.00     0.010 C 
ATOM     14  C   UNL     1      -0.295  -5.230   3.489  1.00  0.00     0.000 C 
ATOM     15  C   UNL     1       0.664  -4.213   4.110  1.00  0.00     0.001 C 
BRANCH   6  16
ATOM     16  C   UNL     1       0.223  -3.053  -1.822  1.00  0.00     0.278 C 
ATOM     17  N   UNL     1      -0.851  -3.476  -2.518  1.00  0.00    -0.346 N 
ATOM     18  H   UNL     1      -1.594  -4.009  -2.045  1.00  0.00     0.164 HD
ATOM     19  O   UNL     1       1.098  -2.424  -2.380  1.00  0.00    -0.268 OA
BRANCH  17  20
ATOM     20  C   UNL     1      -0.961  -3.177  -3.948  1.00  0.00     0.032 C 
ATOM     21  C   UNL     1       0.226  -3.792  -4.691  1.00  0.00     0.034 C 
ATOM     22  C   UNL     1      -2.264  -3.765  -4.493  1.00  0.00     0.034 C 
ATOM     23  C   UNL     1      -0.962  -1.661  -4.154  1.00  0.00     0.034 C 
ENDBRANCH  17  20
ENDBRANCH   6  16
ENDBRANCH   4   5
ENDBRANCH   3   4
BRANCH   3  24
ATOM     24  O   UNL     1       3.209  -0.362  -0.377  1.00  0.00    -0.387 OA
ATOM     25  H   UNL     1       2.990  -0.191  -1.327  1.00  0.00     0.211 HD
ENDBRANCH   3  24
ENDBRANCH   2   3
ENDBRANCH   1   2
BRANCH   1  26
ATOM     26  C   UNL     1       2.284   3.705   0.646  1.00  0.00    -0.035 A 
ATOM     27  C   UNL     1       1.471   4.308   1.607  1.00  0.00     0.043 A 
ATOM     28  C   UNL     1       2.691   4.424  -0.459  1.00  0.00     0.004 A 
ATOM     29  C   UNL     1       1.084   5.640   1.448  1.00  0.00     0.014 A 
ATOM     30  C   UNL     1       2.299   5.742  -0.613  1.00  0.00     0.000 A 
ATOM     31  C   UNL     1       1.498   6.348   0.339  1.00  0.00     0.001 A 
BRANCH  27  32
ATOM     32  C   UNL     1       1.026   3.542   2.790  1.00  0.00     0.254 C 
ATOM     33  O   UNL     1       1.845   2.993   3.502  1.00  0.00    -0.269 OA
BRANCH  32  34
ATOM     34  N   UNL     1      -0.287   3.451   3.080  1.00  0.00    -0.332 N 
BRANCH  34  35
ATOM     35  C   UNL     1      -1.281   4.001   2.155  1.00  0.00     0.148 C 
BRANCH  35  36
ATOM     36  C   UNL     1      -1.571   2.981   1.052  1.00  0.00     0.177 C 
BRANCH  36  37
ATOM     37  O   UNL     1      -2.214   1.837   1.618  1.00  0.00    -0.395 OA
ATOM     38  H   UNL     1      -3.064   2.113   2.044  1.00  0.00     0.210 HD
ENDBRANCH  36  37
ENDBRANCH  35  36
ENDBRANCH  34  35
BRANCH  34  39
ATOM     39  C   UNL     1      -0.721   2.803   4.320  1.00  0.00     0.035 C 
ATOM     40  C   UNL     1      -0.022   3.462   5.511  1.00  0.00     0.034 C 
ATOM     41  C   UNL     1      -2.236   2.953   4.471  1.00  0.00     0.034 C 
ATOM     42  C   UNL     1      -0.358   1.318   4.273  1.00  0.00     0.034 C 
ENDBRANCH  34  39
ENDBRANCH  32  34
ENDBRANCH  27  32
ENDBRANCH   1  26
TORSDOF 14
