REMARK SMILES Cc1nc(NC(=O)c2ccc(-n3cc(Br)cn3)cc2)sc1-c1nccn1C
REMARK SMILES IDX 5 1 6 2 7 3 4 5 1 6 2 7 3 8 21 9 20 10 22 11 26 12 23 13
REMARK SMILES IDX 25 14 27 15 24 16 8 17 19 18 9 19 18 20 10 21 11 22 12 23
REMARK SMILES IDX 17 24 13 25 16 26 14 27 15 28
REMARK H PARENT 5 4
REMARK Flexibility Score: inf
ROOT
ATOM      1  N   UNL     1      -5.395   8.368   0.095  1.00  0.00    -0.298 N 
ATOM      2  C   UNL     1      -4.056   8.515   0.084  1.00  0.00     0.257 C 
ATOM      3  O   UNL     1      -3.566   9.628   0.085  1.00  0.00    -0.269 OA
ATOM      4  H   UNL     1      -5.810   7.425   0.094  1.00  0.00     0.172 HD
ENDROOT
BRANCH   1   5
ATOM      5  C   UNL     1      -6.215   9.486   0.107  1.00  0.00     0.190 A 
ATOM      6  C   UNL     1      -6.381  13.165   0.126  1.00  0.00     0.068 C 
ATOM      7  C   UNL     1      -6.781  11.712   0.123  1.00  0.00     0.062 A 
ATOM      8  N   UNL     1      -5.875  10.762   0.116  1.00  0.00    -0.225 NA
ATOM      9  C   UNL     1      -8.104  11.344   0.133  1.00  0.00     0.095 A 
ATOM     10  S   UNL     1      -7.950   9.563   0.123  1.00  0.00    -0.093 S 
BRANCH   9  11
ATOM     11  C   UNL     1      -9.312  12.182   0.147  1.00  0.00     0.151 A 
ATOM     12  N   UNL     1     -10.601  11.729   0.150  1.00  0.00    -0.333 N 
ATOM     13  N   UNL     1      -9.338  13.499   0.152  1.00  0.00    -0.236 NA
ATOM     14  C   UNL     1     -11.414  12.834   0.167  1.00  0.00     0.107 A 
ATOM     15  C   UNL     1     -11.033  10.329   0.140  1.00  0.00     0.151 C 
ATOM     16  C   UNL     1     -10.611  13.916   0.165  1.00  0.00     0.131 A 
ENDBRANCH   9  11
ENDBRANCH   1   5
BRANCH   2  17
ATOM     17  C   UNL     1      -3.183   7.325   0.070  1.00  0.00     0.040 A 
ATOM     18  C   UNL     1      -3.743   6.045   0.069  1.00  0.00     0.016 A 
ATOM     19  C   UNL     1      -1.793   7.475   0.059  1.00  0.00     0.016 A 
ATOM     20  C   UNL     1      -2.926   4.937   0.050  1.00  0.00     0.029 A 
ATOM     21  C   UNL     1      -0.982   6.362   0.046  1.00  0.00     0.029 A 
ATOM     22  C   UNL     1      -1.544   5.090   0.044  1.00  0.00     0.065 A 
BRANCH  22  23
ATOM     23  N   UNL     1      -0.717   3.963   0.030  1.00  0.00    -0.240 N 
ATOM     24  N   UNL     1       0.684   3.967   0.017  1.00  0.00    -0.175 NA
ATOM     25  C   UNL     1      -1.129   2.668   0.021  1.00  0.00     0.130 A 
ATOM     26  C   UNL     1       1.097   2.725   0.006  1.00  0.00     0.151 A 
ATOM     27  C   UNL     1      -0.024   1.887   0.012  1.00  0.00     0.056 A 
ATOM     28  Br  UNL     1       0.002  -0.004   0.002  1.00  0.00    -0.047 Br
ENDBRANCH  22  23
ENDBRANCH   2  17
TORSDOF 4
