REMARK SMILES CSc1ccc(/C=C2\C[N@@H+](C(C)C)CC3=C2OC(N)=C(C#N)[C@H]3c2ccc(SC)cc2)cc1
REMARK SMILES IDX 9 1 8 2 7 3 16 4 15 5 14 6 23 7 20 8 18 9 17 10 10 11 11 13
REMARK SMILES IDX 12 14 13 15 6 16 32 17 5 18 33 19 4 20 3 21 2 22 1 23 24 24
REMARK SMILES IDX 31 25 25 26 30 27 26 28 27 29 28 30 29 31 21 32 22 33 19 34
REMARK H PARENT 10 12 19 35 19 36
REMARK Flexibility Score: inf
ROOT
ATOM      1  C   UNL     1       4.489   2.129  -3.757  1.00  0.00     0.303 C 
ATOM      2  C   UNL     1       4.903   2.773  -2.450  1.00  0.00     0.050 C 
ATOM      3  C   UNL     1       5.881   3.696  -2.407  1.00  0.00     0.021 C 
ATOM      4  C   UNL     1       4.192   2.352  -1.226  1.00  0.00     0.144 C 
ATOM      5  C   UNL     1       3.093   1.603  -1.325  1.00  0.00     0.040 C 
ATOM      6  C   UNL     1       2.564   1.156  -2.664  1.00  0.00     0.300 C 
ATOM      7  C   UNL     1       2.349   1.172  -0.084  1.00  0.00     0.101 C 
ATOM      8  C   UNL     1       3.228   1.305   1.127  1.00  0.00     0.101 C 
ATOM      9  C   UNL     1       4.342   2.079   1.092  1.00  0.00     0.205 C 
ATOM     10  O   UNL     1       4.684   2.745  -0.025  1.00  0.00    -0.440 OA
ATOM     11  N   UNL     1       3.010   2.061  -3.736  1.00  0.00    -0.325 N 
ATOM     12  H   UNL     1       2.635   3.003  -3.558  1.00  0.00     0.348 HD
ENDROOT
BRANCH  11  13
ATOM     13  C   UNL     1       2.507   1.580  -5.043  1.00  0.00     0.178 C 
ATOM     14  C   UNL     1       2.895   2.589  -6.125  1.00  0.00     0.075 C 
ATOM     15  C   UNL     1       3.111   0.215  -5.378  1.00  0.00     0.075 C 
ENDBRANCH  11  13
BRANCH   3  16
ATOM     16  C   UNL     1       6.684   3.975  -3.608  1.00  0.00    -0.025 A 
ATOM     17  C   UNL     1       7.176   5.264  -3.840  1.00  0.00     0.009 A 
ATOM     18  C   UNL     1       6.962   2.950  -4.519  1.00  0.00     0.009 A 
ATOM     19  C   UNL     1       7.927   5.520  -4.965  1.00  0.00     0.015 A 
ATOM     20  C   UNL     1       7.708   3.216  -5.645  1.00  0.00     0.015 A 
ATOM     21  C   UNL     1       8.196   4.500  -5.872  1.00  0.00     0.007 A 
BRANCH  21  22
ATOM     22  S   UNL     1       9.157   4.833  -7.310  1.00  0.00    -0.130 SA
ATOM     23  C   UNL     1       9.238   3.235  -8.165  1.00  0.00     0.091 C 
ENDBRANCH  21  22
ENDBRANCH   3  16
BRANCH   7  24
ATOM     24  C   UNL     1       1.127   2.037   0.091  1.00  0.00    -0.035 A 
ATOM     25  C   UNL     1       1.266   3.405   0.237  1.00  0.00     0.006 A 
ATOM     26  C   UNL     1      -0.130   1.460   0.103  1.00  0.00     0.006 A 
ATOM     27  C   UNL     1       0.148   4.201   0.397  1.00  0.00     0.015 A 
ATOM     28  C   UNL     1      -1.252   2.250   0.256  1.00  0.00     0.015 A 
ATOM     29  C   UNL     1      -1.117   3.625   0.409  1.00  0.00     0.007 A 
BRANCH  29  30
ATOM     30  S   UNL     1      -2.545   4.636   0.612  1.00  0.00    -0.130 SA
ATOM     31  C   UNL     1      -3.926   3.460   0.564  1.00  0.00     0.091 C 
ENDBRANCH  29  30
ENDBRANCH   7  24
BRANCH   8  32
ATOM     32  C   UNL     1       2.888   0.608   2.330  1.00  0.00     0.101 C 
ATOM     33  N   UNL     1       2.617   0.055   3.285  1.00  0.00    -0.193 NA
ENDBRANCH   8  32
BRANCH   9  34
ATOM     34  N   UNL     1       5.130   2.184   2.211  1.00  0.00    -0.369 N 
ATOM     35  H   UNL     1       4.878   1.679   3.073  1.00  0.00     0.159 HD
ATOM     36  H   UNL     1       5.976   2.771   2.188  1.00  0.00     0.159 HD
ENDBRANCH   9  34
TORSDOF 7
