REMARK SMILES O=C(/C=C/c1c(Cl)nc2sccn12)NNC(=O)c1cc(-c2ccccc2)nc2ccccc12
REMARK SMILES IDX 16 1 17 2 15 3 18 5 20 6 27 7 19 8 28 9 33 10 29 11 32 12
REMARK SMILES IDX 30 13 31 14 21 15 24 16 25 17 23 18 26 19 22 20 14 21 2 22
REMARK SMILES IDX 1 24 3 25 4 26 5 27 13 28 6 29 9 30 12 31 8 32 7 33 10 34
REMARK SMILES IDX 11 35
REMARK H PARENT 15 4 14 23
REMARK Flexibility Score: inf
ROOT
ATOM      1  C   UNL     1       4.754   1.198  -0.037  1.00  0.00     0.270 C 
ATOM      2  O   UNL     1       4.770  -0.017  -0.056  1.00  0.00    -0.267 OA
ATOM      3  N   UNL     1       3.578   1.856  -0.008  1.00  0.00    -0.263 N 
ATOM      4  H   UNL     1       3.564   2.885   0.009  1.00  0.00     0.191 HD
ENDROOT
BRANCH   1   5
ATOM      5  C   UNL     1       6.024   1.955  -0.045  1.00  0.00     0.053 A 
ATOM      6  C   UNL     1       7.269   4.016  -0.144  1.00  0.00     0.072 A 
ATOM      7  N   UNL     1       8.420   3.384  -0.059  1.00  0.00    -0.248 NA
ATOM      8  C   UNL     1       6.040   3.339  -0.141  1.00  0.00     0.043 A 
ATOM      9  C   UNL     1       8.499   2.056   0.036  1.00  0.00     0.072 A 
ATOM     10  C   UNL     1       7.316   1.275   0.054  1.00  0.00     0.013 A 
ATOM     11  C   UNL     1       9.745   1.407   0.126  1.00  0.00     0.029 A 
ATOM     12  C   UNL     1       7.403  -0.119   0.149  1.00  0.00     0.011 A 
ATOM     13  C   UNL     1       9.793   0.050   0.223  1.00  0.00     0.002 A 
ATOM     14  C   UNL     1       8.628  -0.713   0.235  1.00  0.00     0.001 A 
BRANCH   6  15
ATOM     15  C   UNL     1       7.270   5.495  -0.247  1.00  0.00     0.000 A 
ATOM     16  C   UNL     1       7.274   8.257  -0.441  1.00  0.00     0.000 A 
ATOM     17  C   UNL     1       6.074   7.568  -0.435  1.00  0.00     0.001 A 
ATOM     18  C   UNL     1       8.472   7.571  -0.350  1.00  0.00     0.001 A 
ATOM     19  C   UNL     1       6.066   6.191  -0.345  1.00  0.00     0.010 A 
ATOM     20  C   UNL     1       8.476   6.195  -0.253  1.00  0.00     0.010 A 
ENDBRANCH   6  15
ENDBRANCH   1   5
BRANCH   3  21
ATOM     21  N   UNL     1       2.374   1.139  -0.000  1.00  0.00    -0.264 N 
ATOM     22  C   UNL     1       1.198   1.796   0.029  1.00  0.00     0.262 C 
ATOM     23  H   UNL     1       2.388   0.109  -0.017  1.00  0.00     0.191 HD
ATOM     24  O   UNL     1       1.182   3.015   0.048  1.00  0.00    -0.268 OA
BRANCH  22  25
ATOM     25  C   UNL     1      -0.012   1.075   0.036  1.00  0.00     0.075 C 
ATOM     26  C   UNL     1      -1.201   1.740   0.060  1.00  0.00     0.036 C 
BRANCH  26  27
ATOM     27  C   UNL     1      -2.410   1.020   0.062  1.00  0.00     0.085 A 
ATOM     28  N   UNL     1      -3.493   1.201   0.942  1.00  0.00    -0.289 N 
ATOM     29  C   UNL     1      -2.766   0.001  -0.807  1.00  0.00     0.156 A 
ATOM     30  C   UNL     1      -4.420   0.278   0.548  1.00  0.00     0.195 A 
ATOM     31  C   UNL     1      -3.822   2.005   2.008  1.00  0.00     0.105 A 
ATOM     32  N   UNL     1      -3.981  -0.417  -0.471  1.00  0.00    -0.206 NA
ATOM     33  Cl  UNL     1      -1.792  -0.622  -2.103  1.00  0.00    -0.060 Cl
ATOM     34  S   UNL     1      -5.755   0.553   1.690  1.00  0.00    -0.105 S 
ATOM     35  C   UNL     1      -5.000   1.877   2.621  1.00  0.00     0.087 A 
ENDBRANCH  26  27
ENDBRANCH  22  25
ENDBRANCH   3  21
TORSDOF 5
