REMARK SMILES CC/C(=C\C=C\[C@@H]1C=C[C@@H]2[C@@H](CC)CC[C@H]2[C@@H]1C(=O)c1ccc[nH]1)[C@@H]1O[C@H]([C@@H](C)C(=O)[O-])CC[C@@H]1C
REMARK SMILES IDX 6 1 5 2 7 3 11 4 10 5 14 6 16 7 9 8 15 9 17 10 8 11 12 12
REMARK SMILES IDX 13 13 18 14 19 15 20 16 24 17 21 18 23 19 22 21 4 22 3 23
REMARK SMILES IDX 2 24 1 25 25 26 26 27 35 28 27 29 34 30 36 31 33 32 28 33
REMARK SMILES IDX 29 34 30 35 31 36 32 37
REMARK H PARENT 24 20
REMARK Flexibility Score: inf
ROOT
ATOM      1  C   UNL     1      -1.275  -1.509   5.510  1.00  0.00    -0.019 C 
ATOM      2  C   UNL     1      -0.932  -0.616   4.588  1.00  0.00    -0.004 C 
ENDROOT
BRANCH   1   3
ATOM      3  C   UNL     1      -1.883  -1.053   6.811  1.00  0.00     0.045 C 
ATOM      4  C   UNL     1      -2.900  -4.328   9.433  1.00  0.00    -0.004 C 
ATOM      5  C   UNL     1      -2.705  -2.916   8.902  1.00  0.00     0.018 C 
ATOM      6  C   UNL     1      -4.101  -4.900   8.655  1.00  0.00     0.004 C 
ATOM      7  C   UNL     1      -3.184  -3.037   7.429  1.00  0.00     0.008 C 
ATOM      8  C   UNL     1      -1.335  -2.344   8.883  1.00  0.00    -0.027 C 
ATOM      9  C   UNL     1      -4.485  -3.825   7.600  1.00  0.00     0.005 C 
ATOM     10  C   UNL     1      -3.311  -1.614   6.916  1.00  0.00     0.077 C 
ATOM     11  C   UNL     1      -1.005  -1.500   7.939  1.00  0.00    -0.023 C 
BRANCH   4  12
ATOM     12  C   UNL     1      -3.221  -4.293  10.929  1.00  0.00     0.001 C 
ATOM     13  C   UNL     1      -3.290  -5.723  11.468  1.00  0.00     0.004 C 
ENDBRANCH   4  12
BRANCH  10  14
ATOM     14  C   UNL     1      -3.966  -1.612   5.559  1.00  0.00     0.183 C 
ATOM     15  O   UNL     1      -3.940  -2.612   4.870  1.00  0.00    -0.292 OA
BRANCH  14  16
ATOM     16  C   UNL     1      -4.611  -0.446   5.087  1.00  0.00     0.082 A 
ATOM     17  N   UNL     1      -4.723   0.753   5.758  1.00  0.00    -0.359 N 
ATOM     18  C   UNL     1      -5.251  -0.299   3.868  1.00  0.00     0.031 A 
ATOM     19  C   UNL     1      -5.402   1.622   4.981  1.00  0.00     0.083 A 
ATOM     20  H   UNL     1      -4.351   0.952   6.697  1.00  0.00     0.166 HD
ATOM     21  C   UNL     1      -5.742   1.007   3.821  1.00  0.00     0.020 A 
ENDBRANCH  14  16
ENDBRANCH  10  14
ENDBRANCH   1   3
BRANCH   2  22
ATOM     22  C   UNL     1      -0.338  -1.061   3.318  1.00  0.00     0.002 C 
ATOM     23  C   UNL     1       0.006  -0.168   2.396  1.00  0.00    -0.042 C 
BRANCH  23  24
ATOM     24  C   UNL     1      -0.213   1.301   2.651  1.00  0.00     0.030 C 
ATOM     25  C   UNL     1       1.052   1.906   3.262  1.00  0.00     0.009 C 
ENDBRANCH  23  24
BRANCH  23  26
ATOM     26  C   UNL     1       0.614  -0.624   1.095  1.00  0.00     0.147 C 
ATOM     27  O   UNL     1       0.468  -2.041   0.971  1.00  0.00    -0.370 OA
ATOM     28  C   UNL     1       2.101  -0.262   1.071  1.00  0.00     0.019 C 
ATOM     29  C   UNL     1       0.992  -2.577  -0.246  1.00  0.00     0.127 C 
ATOM     30  C   UNL     1       2.725  -0.781  -0.227  1.00  0.00     0.009 C 
ATOM     31  C   UNL     1       2.803  -0.905   2.269  1.00  0.00     0.011 C 
ATOM     32  C   UNL     1       2.494  -2.292  -0.323  1.00  0.00     0.033 C 
BRANCH  29  33
ATOM     33  C   UNL     1       0.756  -4.088  -0.281  1.00  0.00     0.061 C 
ATOM     34  C   UNL     1      -0.746  -4.372  -0.202  1.00  0.00     0.017 C 
BRANCH  33  35
ATOM     35  C   UNL     1       1.307  -4.653  -1.564  1.00  0.00     0.047 C 
ATOM     36  O   UNL     1       1.835  -3.922  -2.368  1.00  0.00    -0.550 OA
ATOM     37  O   UNL     1       1.213  -5.969  -1.813  1.00  0.00    -0.550 OA
ENDBRANCH  33  35
ENDBRANCH  29  33
ENDBRANCH  23  26
ENDBRANCH   2  22
TORSDOF 9
