REMARK SMILES Oc1ccc(N2CC[NH+](Cc3ccc(C[NH+]4CCN(c5ccc(O)cc5)CC4)cc3)CC2)cc1
REMARK SMILES IDX 12 1 13 2 14 3 29 4 30 5 11 6 10 7 9 8 31 9 8 10 32 12 7 13
REMARK SMILES IDX 6 14 5 15 33 16 4 17 34 18 3 19 2 20 1 21 15 23 16 24 28 25
REMARK SMILES IDX 17 26 27 28 18 29 19 30 20 31 26 32 21 33 25 34 22 35 23 36
REMARK SMILES IDX 24 37
REMARK H PARENT 9 11 1 22 16 27 24 38
REMARK Flexibility Score: inf
ROOT
ATOM      1  C   UNL     1       1.890   8.302  -3.411  1.00  0.00     0.010 A 
ATOM      2  C   UNL     1       1.347   8.758  -4.597  1.00  0.00     0.010 A 
ATOM      3  C   UNL     1      -0.016   8.970  -4.697  1.00  0.00     0.006 A 
ATOM      4  C   UNL     1      -0.835   8.723  -3.611  1.00  0.00     0.010 A 
ATOM      5  C   UNL     1      -0.292   8.264  -2.426  1.00  0.00     0.010 A 
ATOM      6  C   UNL     1       1.070   8.050  -2.327  1.00  0.00     0.006 A 
ENDROOT
BRANCH   6   7
ATOM      7  C   UNL     1       1.662   7.549  -1.035  1.00  0.00     0.299 C 
BRANCH   7   8
ATOM      8  N   UNL     1       1.681   6.080  -1.042  1.00  0.00    -0.328 N 
ATOM      9  C   UNL     1       0.316   5.535  -1.032  1.00  0.00     0.284 C 
ATOM     10  C   UNL     1       2.462   5.557   0.088  1.00  0.00     0.284 C 
ATOM     11  H   UNL     1       2.139   5.774  -1.913  1.00  0.00     0.348 HD
ATOM     12  C   UNL     1       0.378   4.009  -1.121  1.00  0.00     0.178 C 
ATOM     13  C   UNL     1       2.523   4.031  -0.001  1.00  0.00     0.178 C 
ATOM     14  N   UNL     1       1.159   3.486   0.009  1.00  0.00    -0.360 N 
BRANCH  14  15
ATOM     15  C   UNL     1       1.177   2.087   0.002  1.00  0.00     0.037 A 
ATOM     16  C   UNL     1       2.388   1.408  -0.013  1.00  0.00     0.030 A 
ATOM     17  C   UNL     1      -0.017   1.377   0.010  1.00  0.00     0.030 A 
ATOM     18  C   UNL     1       2.405   0.027  -0.021  1.00  0.00     0.048 A 
ATOM     19  C   UNL     1       0.002  -0.004   0.002  1.00  0.00     0.048 A 
ATOM     20  C   UNL     1       1.212  -0.681  -0.014  1.00  0.00     0.115 A 
BRANCH  20  21
ATOM     21  O   UNL     1       1.230  -2.041  -0.021  1.00  0.00    -0.508 OA
ATOM     22  H   UNL     1       0.695  -2.299  -0.813  1.00  0.00     0.293 HD
ENDBRANCH  20  21
ENDBRANCH  14  15
ENDBRANCH   7   8
ENDBRANCH   6   7
BRANCH   3  23
ATOM     23  C   UNL     1      -0.608   9.471  -5.989  1.00  0.00     0.299 C 
BRANCH  23  24
ATOM     24  N   UNL     1      -0.628  10.940  -5.982  1.00  0.00    -0.328 N 
ATOM     25  C   UNL     1      -0.975  11.468  -7.309  1.00  0.00     0.284 C 
ATOM     26  C   UNL     1      -1.551  11.449  -4.958  1.00  0.00     0.284 C 
ATOM     27  H   UNL     1       0.320  11.267  -5.747  1.00  0.00     0.348 HD
ATOM     28  C   UNL     1      -0.907  12.997  -7.280  1.00  0.00     0.178 C 
ATOM     29  C   UNL     1      -1.484  12.977  -4.929  1.00  0.00     0.178 C 
ATOM     30  N   UNL     1      -1.830  13.506  -6.256  1.00  0.00    -0.360 N 
BRANCH  30  31
ATOM     31  C   UNL     1      -1.850  14.905  -6.249  1.00  0.00     0.037 A 
ATOM     32  C   UNL     1      -2.662  15.584  -5.351  1.00  0.00     0.030 A 
ATOM     33  C   UNL     1      -1.052  15.615  -7.137  1.00  0.00     0.030 A 
ATOM     34  C   UNL     1      -2.680  16.965  -5.345  1.00  0.00     0.048 A 
ATOM     35  C   UNL     1      -1.076  16.996  -7.133  1.00  0.00     0.048 A 
ATOM     36  C   UNL     1      -1.887  17.674  -6.235  1.00  0.00     0.115 A 
BRANCH  36  37
ATOM     37  O   UNL     1      -1.906  19.033  -6.228  1.00  0.00    -0.508 OA
ATOM     38  H   UNL     1      -2.148  19.290  -7.153  1.00  0.00     0.293 HD
ENDBRANCH  36  37
ENDBRANCH  30  31
ENDBRANCH  23  24
ENDBRANCH   3  23
TORSDOF 8
