REMARK SMILES NC1=[NH+][C@H](c2ccc(Cl)cc2)C(C(=O)Nc2ccccc2)=C(c2ccccc2)N1
REMARK SMILES IDX 22 1 12 2 4 3 3 4 2 5 29 6 1 7 23 12 26 13 27 14 25 15 28 16
REMARK SMILES IDX 24 17 13 18 14 19 15 20 16 22 21 23 17 24 20 25 18 26 19 27
REMARK SMILES IDX 5 28 11 29 6 30 10 31 7 32 8 33 9 34
REMARK H PARENT 3 8 29 9 1 10 1 11 15 21
REMARK Flexibility Score: inf
ROOT
ATOM      1  C   UNL     1       7.166   0.046  -0.274  1.00  0.00     0.119 C 
ATOM      2  C   UNL     1       6.097  -0.682   0.148  1.00  0.00     0.098 C 
ATOM      3  C   UNL     1       6.095  -2.181   0.038  1.00  0.00     0.215 C 
ATOM      4  N   UNL     1       7.436  -2.698  -0.193  1.00  0.00    -0.266 N 
ATOM      5  C   UNL     1       8.421  -1.956  -0.585  1.00  0.00     0.346 C 
ATOM      6  N   UNL     1       8.263  -0.606  -0.804  1.00  0.00    -0.244 N 
ATOM      7  N   UNL     1       9.655  -2.529  -0.786  1.00  0.00    -0.291 N 
ATOM      8  H   UNL     1       7.609  -3.702  -0.038  1.00  0.00     0.261 HD
ATOM      9  H   UNL     1       8.957  -0.086  -1.360  1.00  0.00     0.267 HD
ATOM     10  H   UNL     1       9.796  -3.537  -0.628  1.00  0.00     0.256 HD
ATOM     11  H   UNL     1      10.443  -1.944  -1.098  1.00  0.00     0.256 HD
ENDROOT
BRANCH   1  12
ATOM     12  C   UNL     1       7.155   1.518  -0.166  1.00  0.00     0.014 A 
ATOM     13  C   UNL     1       7.134   4.280   0.037  1.00  0.00     0.000 A 
ATOM     14  C   UNL     1       6.250   3.646  -0.817  1.00  0.00     0.001 A 
ATOM     15  C   UNL     1       8.028   3.541   0.791  1.00  0.00     0.001 A 
ATOM     16  C   UNL     1       6.258   2.271  -0.928  1.00  0.00     0.012 A 
ATOM     17  C   UNL     1       8.045   2.165   0.695  1.00  0.00     0.012 A 
ENDBRANCH   1  12
BRANCH   2  18
ATOM     18  C   UNL     1       4.979  -0.023   0.700  1.00  0.00     0.259 C 
ATOM     19  O   UNL     1       4.990   1.188   0.830  1.00  0.00    -0.269 OA
ATOM     20  N   UNL     1       3.900  -0.733   1.084  1.00  0.00    -0.322 N 
ATOM     21  H   UNL     1       3.920  -1.762   1.046  1.00  0.00     0.170 HD
BRANCH  20  22
ATOM     22  C   UNL     1       2.753  -0.072   1.534  1.00  0.00     0.041 A 
ATOM     23  C   UNL     1       2.868   1.103   2.265  1.00  0.00     0.026 A 
ATOM     24  C   UNL     1       1.495  -0.589   1.250  1.00  0.00     0.026 A 
ATOM     25  C   UNL     1       1.733   1.754   2.708  1.00  0.00     0.002 A 
ATOM     26  C   UNL     1       0.364   0.066   1.696  1.00  0.00     0.002 A 
ATOM     27  C   UNL     1       0.482   1.236   2.424  1.00  0.00     0.000 A 
ENDBRANCH  20  22
ENDBRANCH   2  18
BRANCH   3  28
ATOM     28  C   UNL     1       5.209  -2.590  -1.111  1.00  0.00    -0.006 A 
ATOM     29  C   UNL     1       3.922  -3.030  -0.868  1.00  0.00     0.009 A 
ATOM     30  C   UNL     1       5.683  -2.520  -2.408  1.00  0.00     0.009 A 
ATOM     31  C   UNL     1       3.109  -3.405  -1.921  1.00  0.00     0.021 A 
ATOM     32  C   UNL     1       4.873  -2.901  -3.461  1.00  0.00     0.021 A 
ATOM     33  C   UNL     1       3.584  -3.341  -3.218  1.00  0.00     0.041 A 
ATOM     34  Cl  UNL     1       2.564  -3.813  -4.541  1.00  0.00    -0.084 Cl
ENDBRANCH   3  28
TORSDOF 4
