REMARK SMILES CN(Cc1cnc2nc(N)nc(N)c2n1)c1ccc2c(Cl)cc(Cl)cc2c1
REMARK SMILES IDX 3 1 2 2 1 3 16 4 27 5 17 6 26 7 18 8 19 9 25 10 20 11 23 12
REMARK SMILES IDX 22 13 21 14 24 15 4 16 15 17 5 18 14 19 6 20 7 21 12 22 8 23
REMARK SMILES IDX 11 24 9 25 13 26 10 29
REMARK H PARENT 13 27 13 28 10 30 10 31
REMARK Flexibility Score: inf
ROOT
ATOM      1  C   UNL     1      -1.160  -4.927  -0.016  1.00  0.00     0.174 C 
ENDROOT
BRANCH   1   2
ATOM      2  N   UNL     1       0.099  -4.179  -0.023  1.00  0.00    -0.369 N 
ATOM      3  C   UNL     1       1.377  -4.895  -0.039  1.00  0.00     0.144 C 
BRANCH   2   4
ATOM      4  C   UNL     1       0.081  -2.783  -0.014  1.00  0.00     0.037 A 
ATOM      5  C   UNL     1       1.269  -2.086  -0.021  1.00  0.00     0.034 A 
ATOM      6  C   UNL     1      -1.144  -2.105   0.001  1.00  0.00     0.026 A 
ATOM      7  C   UNL     1       1.248  -0.681  -0.013  1.00  0.00    -0.013 A 
ATOM      8  C   UNL     1      -1.191  -0.747   0.009  1.00  0.00     0.012 A 
ATOM      9  C   UNL     1       0.002  -0.004   0.002  1.00  0.00     0.001 A 
ATOM     10  C   UNL     1       2.438   0.065  -0.021  1.00  0.00     0.029 A 
ATOM     11  C   UNL     1      -0.017   1.402   0.010  1.00  0.00     0.050 A 
ATOM     12  C   UNL     1       2.382   1.426  -0.013  1.00  0.00     0.043 A 
ATOM     13  C   UNL     1       1.157   2.093   0.002  1.00  0.00     0.041 A 
ATOM     14  Cl  UNL     1      -1.530   2.253   0.022  1.00  0.00    -0.084 Cl
ATOM     15  Cl  UNL     1       3.855   2.344  -0.022  1.00  0.00    -0.084 Cl
ENDBRANCH   2   4
ENDBRANCH   1   2
BRANCH   1  16
ATOM     16  C   UNL     1      -1.605  -5.176  -1.434  1.00  0.00     0.079 A 
ATOM     17  N   UNL     1      -2.303  -4.258  -2.068  1.00  0.00    -0.242 NA
ATOM     18  C   UNL     1      -1.277  -6.378  -2.060  1.00  0.00     0.139 A 
ATOM     19  C   UNL     1      -2.690  -4.478  -3.321  1.00  0.00     0.150 A 
ATOM     20  N   UNL     1      -1.655  -6.618  -3.298  1.00  0.00    -0.233 NA
ATOM     21  C   UNL     1      -2.360  -5.698  -3.962  1.00  0.00     0.185 A 
ATOM     22  C   UNL     1      -3.464  -3.495  -4.080  1.00  0.00     0.157 A 
ATOM     23  N   UNL     1      -2.768  -5.892  -5.222  1.00  0.00    -0.191 NA
ATOM     24  N   UNL     1      -3.808  -3.807  -5.322  1.00  0.00    -0.194 NA
ATOM     25  C   UNL     1      -3.463  -4.972  -5.861  1.00  0.00     0.224 A 
BRANCH  22  26
ATOM     26  N   UNL     1      -3.822  -2.286  -3.524  1.00  0.00    -0.382 N 
ATOM     27  H   UNL     1      -3.538  -2.076  -2.557  1.00  0.00     0.158 HD
ATOM     28  H   UNL     1      -4.367  -1.601  -4.066  1.00  0.00     0.158 HD
ENDBRANCH  22  26
BRANCH  25  29
ATOM     29  N   UNL     1      -3.854  -5.234  -7.160  1.00  0.00    -0.368 N 
ATOM     30  H   UNL     1      -4.399  -4.548  -7.702  1.00  0.00     0.159 HD
ATOM     31  H   UNL     1      -3.594  -6.132  -7.592  1.00  0.00     0.159 HD
ENDBRANCH  25  29
ENDBRANCH   1  16
TORSDOF 5
