REMARK SMILES COc1ccc([C@@H]2c3ccc(O)c(O)c3O[C@]34NC(=S)N[C@H](c5ccc(OC)cc5)[C@@H]3CCC[C@@H]24)cc1
REMARK SMILES IDX 7 1 8 2 9 3 10 4 11 5 13 6 15 7 16 8 17 9 35 10 34 11 33 12
REMARK SMILES IDX 32 13 31 14 22 15 21 16 19 17 20 18 18 19 6 22 3 23 37 24
REMARK SMILES IDX 4 25 36 26 5 27 2 28 1 29 14 30 23 32 30 33 24 34 29 35
REMARK SMILES IDX 25 36 26 37 27 38 28 39 12 40
REMARK H PARENT 21 20 18 21 14 31 12 41
REMARK Flexibility Score: inf
ROOT
ATOM      1  C   UNL     1       3.073  -0.158   0.762  1.00  0.00     0.062 C 
ATOM      2  C   UNL     1       3.972   0.455   1.823  1.00  0.00     0.006 A 
ATOM      3  C   UNL     1       3.493   0.540   3.119  1.00  0.00     0.012 A 
ATOM      4  C   UNL     1       4.270   1.097   4.116  1.00  0.00     0.051 A 
ATOM      5  C   UNL     1       5.537   1.575   3.819  1.00  0.00     0.161 A 
ATOM      6  C   UNL     1       6.023   1.488   2.522  1.00  0.00     0.200 A 
ATOM      7  C   UNL     1       5.239   0.923   1.517  1.00  0.00     0.171 A 
ATOM      8  O   UNL     1       5.772   0.856   0.256  1.00  0.00    -0.463 OA
ATOM      9  C   UNL     1       5.137  -0.102  -0.596  1.00  0.00     0.191 C 
ATOM     10  C   UNL     1       3.653   0.235  -0.579  1.00  0.00     0.067 C 
ATOM     11  C   UNL     1       2.956  -0.242  -1.824  1.00  0.00     0.011 C 
ATOM     12  C   UNL     1       3.443   0.568  -3.036  1.00  0.00     0.001 C 
ATOM     13  C   UNL     1       4.919   0.966  -2.859  1.00  0.00     0.012 C 
ATOM     14  C   UNL     1       5.617  -0.074  -2.035  1.00  0.00     0.082 C 
ATOM     15  C   UNL     1       7.119  -0.194  -2.090  1.00  0.00     0.121 C 
ATOM     16  N   UNL     1       7.468  -1.427  -1.354  1.00  0.00    -0.355 N 
ATOM     17  C   UNL     1       6.628  -1.987  -0.469  1.00  0.00     0.169 C 
ATOM     18  S   UNL     1       7.071  -3.495   0.209  1.00  0.00    -0.041 S 
ATOM     19  N   UNL     1       5.456  -1.438  -0.079  1.00  0.00    -0.325 N 
ATOM     20  H   UNL     1       8.382  -1.869  -1.525  1.00  0.00     0.163 HD
ATOM     21  H   UNL     1       4.814  -1.936   0.554  1.00  0.00     0.166 HD
ENDROOT
BRANCH   1  22
ATOM     22  C   UNL     1       1.673   0.384   0.896  1.00  0.00    -0.040 A 
ATOM     23  C   UNL     1      -0.896   1.379   1.143  1.00  0.00     0.118 A 
ATOM     24  C   UNL     1       0.170   2.247   0.953  1.00  0.00     0.047 A 
ATOM     25  C   UNL     1      -0.672   0.012   1.203  1.00  0.00     0.047 A 
ATOM     26  C   UNL     1       1.452   1.748   0.830  1.00  0.00     0.008 A 
ATOM     27  C   UNL     1       0.613  -0.482   1.085  1.00  0.00     0.008 A 
BRANCH  23  28
ATOM     28  O   UNL     1      -2.158   1.868   1.265  1.00  0.00    -0.497 OA
ATOM     29  C   UNL     1      -3.207   0.917   1.458  1.00  0.00     0.278 C 
ENDBRANCH  23  28
ENDBRANCH   1  22
BRANCH   6  30
ATOM     30  O   UNL     1       7.267   1.957   2.230  1.00  0.00    -0.502 OA
ATOM     31  H   UNL     1       7.873   1.472   2.844  1.00  0.00     0.293 HD
ENDBRANCH   6  30
BRANCH  15  32
ATOM     32  C   UNL     1       7.756   1.000  -1.428  1.00  0.00    -0.025 A 
ATOM     33  C   UNL     1       8.442   0.846  -0.238  1.00  0.00     0.010 A 
ATOM     34  C   UNL     1       7.660   2.248  -2.016  1.00  0.00     0.010 A 
ATOM     35  C   UNL     1       9.028   1.939   0.370  1.00  0.00     0.047 A 
ATOM     36  C   UNL     1       8.238   3.346  -1.409  1.00  0.00     0.047 A 
ATOM     37  C   UNL     1       8.928   3.193  -0.215  1.00  0.00     0.118 A 
BRANCH  37  38
ATOM     38  O   UNL     1       9.504   4.270   0.381  1.00  0.00    -0.497 OA
ATOM     39  C   UNL     1       9.360   5.530  -0.277  1.00  0.00     0.278 C 
ENDBRANCH  37  38
ENDBRANCH  15  32
BRANCH   5  40
ATOM     40  O   UNL     1       6.303   2.127   4.798  1.00  0.00    -0.504 OA
ATOM     41  H   UNL     1       6.367   1.429   5.496  1.00  0.00     0.293 HD
ENDBRANCH   5  40
TORSDOF 6
