REMARK SMILES CCc1cc2c(=O)n(-c3ccccc3)c(SCC(=O)N/N=C/c3ccccc3O)nc2s1
REMARK SMILES IDX 18 1 19 2 20 3 17 5 16 6 15 7 3 8 32 9 4 10 31 11 5 12 30 13
REMARK SMILES IDX 6 14 8 15 7 16 2 17 1 18 9 19 14 20 10 21 13 22 11 23 12 24
REMARK SMILES IDX 21 25 22 26 23 27 28 28 24 29 27 30 25 31 26 32 29 33
REMARK H PARENT 20 4 29 34
REMARK Flexibility Score: inf
ROOT
ATOM      1  C   UNL     1       1.382   6.951  -0.435  1.00  0.00     0.250 C 
ATOM      2  O   UNL     1       0.260   6.491  -0.441  1.00  0.00    -0.272 OA
ATOM      3  N   UNL     1       1.565   8.284  -0.521  1.00  0.00    -0.246 N 
ATOM      4  H   UNL     1       2.518   8.675  -0.516  1.00  0.00     0.193 HD
ENDROOT
BRANCH   1   5
ATOM      5  C   UNL     1       2.573   6.033  -0.330  1.00  0.00     0.180 C 
BRANCH   5   6
ATOM      6  S   UNL     1       2.005   4.317  -0.230  1.00  0.00    -0.077 SA
BRANCH   6   7
ATOM      7  C   UNL     1       3.555   3.488  -0.118  1.00  0.00     0.177 A 
ATOM      8  C   UNL     1       8.356   2.582   0.109  1.00  0.00     0.007 A 
ATOM      9  S   UNL     1       7.534   4.158  -0.029  1.00  0.00    -0.120 S 
ATOM     10  C   UNL     1       7.343   1.704   0.136  1.00  0.00     0.031 A 
ATOM     11  C   UNL     1       5.853   3.591  -0.047  1.00  0.00     0.132 A 
ATOM     12  C   UNL     1       5.977   2.193   0.055  1.00  0.00     0.077 A 
ATOM     13  N   UNL     1       4.670   4.189  -0.129  1.00  0.00    -0.212 NA
ATOM     14  C   UNL     1       4.750   1.458   0.070  1.00  0.00     0.267 A 
ATOM     15  N   UNL     1       3.585   2.125  -0.022  1.00  0.00    -0.255 N 
ATOM     16  O   UNL     1       4.760   0.242   0.160  1.00  0.00    -0.268 OA
BRANCH   8  17
ATOM     17  C   UNL     1       9.835   2.304   0.180  1.00  0.00     0.043 C 
ATOM     18  C   UNL     1      10.385   2.108  -1.234  1.00  0.00     0.010 C 
ENDBRANCH   8  17
BRANCH  15  19
ATOM     19  C   UNL     1       2.381   1.409  -0.013  1.00  0.00     0.051 A 
ATOM     20  C   UNL     1       1.825   0.969  -1.207  1.00  0.00     0.027 A 
ATOM     21  C   UNL     1       1.740   1.139   1.189  1.00  0.00     0.027 A 
ATOM     22  C   UNL     1       0.637   0.264  -1.196  1.00  0.00     0.002 A 
ATOM     23  C   UNL     1       0.553   0.434   1.194  1.00  0.00     0.002 A 
ATOM     24  C   UNL     1       0.001  -0.003   0.003  1.00  0.00     0.000 A 
ENDBRANCH  15  19
ENDBRANCH   6   7
ENDBRANCH   5   6
ENDBRANCH   1   5
BRANCH   3  25
ATOM     25  N   UNL     1       0.458   9.137  -0.619  1.00  0.00    -0.181 NA
ATOM     26  C   UNL     1       0.633  10.421  -0.703  1.00  0.00     0.145 C 
BRANCH  26  27
ATOM     27  C   UNL     1      -0.531  11.318  -0.805  1.00  0.00     0.036 A 
ATOM     28  C   UNL     1      -1.829  10.791  -0.813  1.00  0.00     0.124 A 
ATOM     29  C   UNL     1      -0.346  12.700  -0.889  1.00  0.00     0.013 A 
ATOM     30  C   UNL     1      -2.916  11.644  -0.909  1.00  0.00     0.047 A 
ATOM     31  C   UNL     1      -1.440  13.535  -0.990  1.00  0.00     0.001 A 
ATOM     32  C   UNL     1      -2.721  13.009  -0.998  1.00  0.00     0.004 A 
BRANCH  28  33
ATOM     33  O   UNL     1      -2.020   9.449  -0.727  1.00  0.00    -0.507 OA
ATOM     34  H   UNL     1      -1.557   9.180   0.106  1.00  0.00     0.293 HD
ENDBRANCH  28  33
ENDBRANCH  26  27
ENDBRANCH   3  25
TORSDOF 8
