REMARK SMILES CC(C)c1cc(=O)[nH]c(-n2nc(-c3ccco3)cc2NC(=O)CC(c2ccccc2)c2ccccc2)n1
REMARK SMILES IDX 20 1 21 2 22 3 19 5 10 6 11 7 12 8 18 9 9 10 4 11 37 12 5 13
REMARK SMILES IDX 6 14 8 15 7 16 2 18 1 19 3 20 13 21 17 22 14 23 16 24 15 25
REMARK SMILES IDX 23 26 24 27 25 28 30 29 26 30 29 31 27 32 28 33 31 34 36 35
REMARK SMILES IDX 32 36 35 37 33 38 34 39
REMARK H PARENT 20 4 8 17
REMARK Flexibility Score: inf
ROOT
ATOM      1  N   UNL     1      -2.083   1.026   3.242  1.00  0.00    -0.310 N 
ATOM      2  C   UNL     1      -1.652   0.889   1.972  1.00  0.00     0.226 C 
ATOM      3  O   UNL     1      -2.333   0.298   1.161  1.00  0.00    -0.275 OA
ATOM      4  H   UNL     1      -1.505   1.529   3.930  1.00  0.00     0.171 HD
ENDROOT
BRANCH   1   5
ATOM      5  C   UNL     1      -3.311   0.489   3.622  1.00  0.00     0.140 A 
ATOM      6  N   UNL     1      -3.924   0.655   4.832  1.00  0.00    -0.183 N 
ATOM      7  N   UNL     1      -5.136  -0.045   4.803  1.00  0.00    -0.160 NA
ATOM      8  C   UNL     1      -5.253  -0.622   3.624  1.00  0.00     0.130 A 
ATOM      9  C   UNL     1      -4.111  -0.299   2.860  1.00  0.00     0.081 A 
BRANCH   6  10
ATOM     10  C   UNL     1      -3.434   1.387   5.896  1.00  0.00     0.233 A 
ATOM     11  C   UNL     1      -1.719   2.624   6.822  1.00  0.00     0.052 A 
ATOM     12  N   UNL     1      -2.230   1.911   5.820  1.00  0.00    -0.217 NA
ATOM     13  C   UNL     1      -2.446   2.826   7.958  1.00  0.00     0.095 A 
ATOM     14  C   UNL     1      -3.736   2.269   8.047  1.00  0.00     0.252 A 
ATOM     15  N   UNL     1      -4.208   1.559   7.000  1.00  0.00    -0.291 N 
ATOM     16  O   UNL     1      -4.415   2.430   9.048  1.00  0.00    -0.269 OA
ATOM     17  H   UNL     1      -5.152   1.148   7.039  1.00  0.00     0.173 HD
BRANCH  11  18
ATOM     18  C   UNL     1      -0.335   3.209   6.701  1.00  0.00     0.032 C 
ATOM     19  C   UNL     1       0.678   2.082   6.494  1.00  0.00     0.014 C 
ATOM     20  C   UNL     1      -0.288   4.163   5.505  1.00  0.00     0.014 C 
ENDBRANCH  11  18
ENDBRANCH   6  10
BRANCH   8  21
ATOM     21  C   UNL     1      -6.384  -1.462   3.178  1.00  0.00     0.154 A 
ATOM     22  O   UNL     1      -6.503  -2.053   1.974  1.00  0.00    -0.463 OA
ATOM     23  C   UNL     1      -7.482  -1.778   3.915  1.00  0.00     0.052 A 
ATOM     24  C   UNL     1      -7.659  -2.736   1.924  1.00  0.00     0.196 A 
ATOM     25  C   UNL     1      -8.297  -2.590   3.101  1.00  0.00     0.043 A 
ENDBRANCH   8  21
ENDBRANCH   1   5
BRANCH   2  26
ATOM     26  C   UNL     1      -0.325   1.471   1.560  1.00  0.00     0.113 C 
BRANCH  26  27
ATOM     27  C   UNL     1      -0.076   1.177   0.079  1.00  0.00     0.058 C 
BRANCH  27  28
ATOM     28  C   UNL     1       1.303   1.650  -0.302  1.00  0.00    -0.040 A 
ATOM     29  C   UNL     1       1.681   2.955  -0.047  1.00  0.00     0.004 A 
ATOM     30  C   UNL     1       2.191   0.778  -0.902  1.00  0.00     0.004 A 
ATOM     31  C   UNL     1       2.946   3.389  -0.397  1.00  0.00     0.000 A 
ATOM     32  C   UNL     1       3.455   1.213  -1.257  1.00  0.00     0.000 A 
ATOM     33  C   UNL     1       3.833   2.518  -1.002  1.00  0.00     0.000 A 
ENDBRANCH  27  28
BRANCH  27  34
ATOM     34  C   UNL     1      -1.103   1.898  -0.755  1.00  0.00    -0.040 A 
ATOM     35  C   UNL     1      -1.838   1.204  -1.698  1.00  0.00     0.004 A 
ATOM     36  C   UNL     1      -1.314   3.252  -0.574  1.00  0.00     0.004 A 
ATOM     37  C   UNL     1      -2.781   1.865  -2.463  1.00  0.00     0.000 A 
ATOM     38  C   UNL     1      -2.253   3.914  -1.343  1.00  0.00     0.000 A 
ATOM     39  C   UNL     1      -2.988   3.220  -2.286  1.00  0.00     0.000 A 
ENDBRANCH  27  34
ENDBRANCH  26  27
ENDBRANCH   2  26
TORSDOF 8
