REMARK SMILES O=[N+]([O-])c1ccc(O[C@@H]2O[C@H]3CO[C@@H](c4ccccc4)O[C@H]3[C@H](O)[C@@H]2O)cc1
REMARK SMILES IDX 8 1 9 2 14 3 21 4 13 5 22 6 12 7 11 8 23 9 10 10 25 11 15 12
REMARK SMILES IDX 18 13 19 14 17 15 20 16 16 17 24 18 26 20 7 22 27 23 6 24
REMARK SMILES IDX 28 25 5 26 4 27 2 28 3 29 1 30
REMARK H PARENT 24 19 26 21
REMARK Flexibility Score: inf
ROOT
ATOM      1  O   UNL     1      -1.203  -2.068  -2.478  1.00  0.00    -0.462 OA
ENDROOT
BRANCH   1   2
ATOM      2  C   UNL     1      -1.269  -0.641  -2.509  1.00  0.00     0.339 C 
ATOM      3  C   UNL     1       1.284   2.018   0.001  1.00  0.00     0.282 C 
ATOM      4  O   UNL     1      -0.017   1.425   0.010  1.00  0.00    -0.339 OA
ATOM      5  O   UNL     1       2.001   1.581  -1.157  1.00  0.00    -0.346 OA
ATOM      6  C   UNL     1       0.002  -0.004   0.002  1.00  0.00     0.184 C 
ATOM      7  C   UNL     1       2.153   0.160  -1.241  1.00  0.00     0.199 C 
ATOM      8  C   UNL     1       0.762  -0.487  -1.237  1.00  0.00     0.180 C 
ATOM      9  C   UNL     1      -1.430  -0.540  -0.032  1.00  0.00     0.181 C 
ATOM     10  O   UNL     1       0.050  -0.101  -2.415  1.00  0.00    -0.332 OA
ATOM     11  C   UNL     1      -2.106  -0.141  -1.328  1.00  0.00     0.214 C 
BRANCH   3  12
ATOM     12  C   UNL     1       1.152   3.519  -0.028  1.00  0.00     0.008 A 
ATOM     13  C   UNL     1       0.910   6.272  -0.081  1.00  0.00     0.000 A 
ATOM     14  C   UNL     1      -0.222   5.479  -0.069  1.00  0.00     0.000 A 
ATOM     15  C   UNL     1       2.163   5.689  -0.068  1.00  0.00     0.000 A 
ATOM     16  C   UNL     1      -0.101   4.102  -0.047  1.00  0.00     0.009 A 
ATOM     17  C   UNL     1       2.284   4.312  -0.042  1.00  0.00     0.009 A 
ENDBRANCH   3  12
BRANCH   9  18
ATOM     18  O   UNL     1      -1.407  -1.967   0.041  1.00  0.00    -0.387 OA
ATOM     19  H   UNL     1      -0.970  -2.248   0.884  1.00  0.00     0.211 HD
ENDBRANCH   9  18
BRANCH  11  20
ATOM     20  O   UNL     1      -3.412  -0.717  -1.390  1.00  0.00    -0.384 OA
ATOM     21  H   UNL     1      -3.950  -0.394  -0.624  1.00  0.00     0.211 HD
ENDBRANCH  11  20
ENDBRANCH   1   2
BRANCH   1  22
ATOM     22  C   UNL     1      -0.579  -2.680  -3.519  1.00  0.00     0.123 A 
ATOM     23  C   UNL     1      -0.479  -4.063  -3.553  1.00  0.00     0.053 A 
ATOM     24  C   UNL     1      -0.046  -1.922  -4.551  1.00  0.00     0.053 A 
ATOM     25  C   UNL     1       0.155  -4.682  -4.612  1.00  0.00     0.089 A 
ATOM     26  C   UNL     1       0.593  -2.546  -5.606  1.00  0.00     0.089 A 
ATOM     27  C   UNL     1       0.691  -3.925  -5.638  1.00  0.00     0.269 A 
BRANCH  27  28
ATOM     28  N   UNL     1       1.370  -4.591  -6.772  1.00  0.00     0.062 N 
ATOM     29  O   UNL     1       1.456  -5.806  -6.801  1.00  0.00    -0.258 OA
ATOM     30  O   UNL     1       1.841  -3.925  -7.676  1.00  0.00    -0.258 OA
ENDBRANCH  27  28
ENDBRANCH   1  22
TORSDOF 6
