REMARK SMILES CCCS(=O)(=O)N[C@H]1CC(C)(C)[C@@H]2C[C@@](C)(O)CC[C@]12CCC(=O)NCCc1c[nH]c2ccccc12
REMARK SMILES IDX 21 1 20 2 8 3 9 4 13 5 19 6 10 7 14 8 18 9 11 10 12 11 15 12
REMARK SMILES IDX 16 13 7 14 4 16 5 17 6 18 3 19 2 20 1 21 17 22 22 24 23 25
REMARK SMILES IDX 24 26 25 27 26 29 27 30 28 31 36 32 29 33 31 34 35 35 30 36
REMARK SMILES IDX 32 37 34 38 33 40
REMARK H PARENT 7 15 17 23 25 28 30 39
REMARK Flexibility Score: inf
ROOT
ATOM      1  C   UNL     1      -1.562   2.837   2.730  1.00  0.00     0.019 C 
ENDROOT
BRANCH   1   2
ATOM      2  C   UNL     1      -2.501   1.741   2.222  1.00  0.00    -0.009 C 
ATOM      3  C   UNL     1      -1.624   0.652   1.574  1.00  0.00     0.076 C 
ATOM      4  C   UNL     1      -1.452  -0.433   2.654  1.00  0.00     0.027 C 
ATOM      5  C   UNL     1      -3.176   1.132   3.420  1.00  0.00     0.005 C 
ATOM      6  C   UNL     1      -3.400   2.372   1.184  1.00  0.00     0.012 C 
ATOM      7  C   UNL     1      -2.725  -0.337   3.519  1.00  0.00    -0.030 C 
ATOM      8  C   UNL     1      -4.654   1.241   3.597  1.00  0.00     0.039 C 
ATOM      9  C   UNL     1      -4.621   3.004   1.823  1.00  0.00     0.035 C 
ATOM     10  C   UNL     1      -2.406  -0.696   4.972  1.00  0.00     0.011 C 
ATOM     11  C   UNL     1      -3.812  -1.263   2.971  1.00  0.00     0.011 C 
ATOM     12  C   UNL     1      -5.439   1.895   2.484  1.00  0.00     0.062 C 
ATOM     13  C   UNL     1      -5.800   0.842   1.435  1.00  0.00     0.042 C 
BRANCH   3  14
ATOM     14  N   UNL     1      -0.321   1.207   1.200  1.00  0.00    -0.212 NA
ATOM     15  H   UNL     1       0.139   1.897   1.811  1.00  0.00     0.141 HD
BRANCH  14  16
ATOM     16  S   UNL     1       0.412   0.725  -0.204  1.00  0.00     0.211 S 
ATOM     17  O   UNL     1       0.393  -0.695  -0.155  1.00  0.00    -0.212 OA
ATOM     18  O   UNL     1       1.644   1.433  -0.232  1.00  0.00    -0.212 OA
BRANCH  16  19
ATOM     19  C   UNL     1      -0.679   1.319  -1.527  1.00  0.00     0.153 C 
BRANCH  19  20
ATOM     20  C   UNL     1      -0.094   0.925  -2.885  1.00  0.00     0.014 C 
ATOM     21  C   UNL     1      -1.014   1.426  -4.000  1.00  0.00     0.005 C 
ENDBRANCH  19  20
ENDBRANCH  16  19
ENDBRANCH  14  16
ENDBRANCH   3  14
BRANCH  12  22
ATOM     22  O   UNL     1      -6.640   2.454   3.021  1.00  0.00    -0.390 OA
ATOM     23  H   UNL     1      -7.170   2.864   2.293  1.00  0.00     0.211 HD
ENDBRANCH  12  22
ENDBRANCH   1   2
BRANCH   1  24
ATOM     24  C   UNL     1      -0.649   2.263   3.816  1.00  0.00     0.100 C 
BRANCH  24  25
ATOM     25  C   UNL     1       0.364   3.302   4.221  1.00  0.00     0.220 C 
ATOM     26  O   UNL     1       0.356   4.394   3.694  1.00  0.00    -0.275 OA
ATOM     27  N   UNL     1       1.279   3.018   5.169  1.00  0.00    -0.356 N 
ATOM     28  H   UNL     1       1.285   2.091   5.617  1.00  0.00     0.163 HD
BRANCH  27  29
ATOM     29  C   UNL     1       2.263   4.029   5.564  1.00  0.00     0.120 C 
BRANCH  29  30
ATOM     30  C   UNL     1       3.177   3.455   6.649  1.00  0.00     0.059 C 
BRANCH  30  31
ATOM     31  C   UNL     1       4.190   4.494   7.054  1.00  0.00    -0.021 A 
ATOM     32  C   UNL     1       4.000   5.555   8.047  1.00  0.00     0.003 A 
ATOM     33  C   UNL     1       5.438   4.621   6.578  1.00  0.00     0.087 A 
ATOM     34  C   UNL     1       5.210   6.272   8.085  1.00  0.00     0.046 A 
ATOM     35  C   UNL     1       2.940   5.933   8.873  1.00  0.00     0.010 A 
ATOM     36  N   UNL     1       6.061   5.681   7.178  1.00  0.00    -0.361 N 
ATOM     37  C   UNL     1       5.334   7.354   8.950  1.00  0.00     0.026 A 
ATOM     38  C   UNL     1       3.083   7.000   9.714  1.00  0.00     0.001 A 
ATOM     39  H   UNL     1       7.024   5.991   6.981  1.00  0.00     0.166 HD
ATOM     40  C   UNL     1       4.275   7.711   9.756  1.00  0.00     0.002 A 
ENDBRANCH  30  31
ENDBRANCH  29  30
ENDBRANCH  27  29
ENDBRANCH  24  25
ENDBRANCH   1  24
TORSDOF 11
