REMARK SMILES Cc1ccc(Cc2cnc(NC(=O)Cc3csc(NC(=O)c4cccs4)n3)s2)cc1
REMARK SMILES IDX 11 1 12 2 13 3 10 5 7 6 28 7 8 8 9 9 6 10 5 11 1 12 2 13
REMARK SMILES IDX 30 14 3 15 29 16 4 17 14 18 15 19 27 20 16 21 18 22 17 23
REMARK SMILES IDX 19 24 20 25 21 27 22 28 26 29 23 30 25 31 24 32
REMARK H PARENT 11 4 19 26
REMARK Flexibility Score: inf
ROOT
ATOM      1  N   UNL     1       0.830   5.440   0.023  1.00  0.00    -0.302 N 
ATOM      2  C   UNL     1      -0.070   6.443   0.037  1.00  0.00     0.232 C 
ATOM      3  O   UNL     1      -1.257   6.194   0.048  1.00  0.00    -0.274 OA
ATOM      4  H   UNL     1       1.838   5.652   0.014  1.00  0.00     0.172 HD
ENDROOT
BRANCH   1   5
ATOM      5  C   UNL     1       0.397   4.119   0.020  1.00  0.00     0.189 A 
ATOM      6  C   UNL     1      -0.018   1.503   0.010  1.00  0.00     0.031 A 
ATOM      7  S   UNL     1       1.342   2.662   0.004  1.00  0.00    -0.101 S 
ATOM      8  C   UNL     1      -1.074   2.353   0.019  1.00  0.00     0.129 A 
ATOM      9  N   UNL     1      -0.835   3.650   0.030  1.00  0.00    -0.228 NA
BRANCH   6  10
ATOM     10  C   UNL     1       0.002  -0.004   0.002  1.00  0.00     0.084 C 
BRANCH  10  11
ATOM     11  C   UNL     1      -0.004  -0.499  -1.421  1.00  0.00    -0.043 A 
ATOM     12  C   UNL     1      -0.021  -1.900  -5.457  1.00  0.00     0.044 C 
ATOM     13  C   UNL     1      -0.015  -1.407  -4.033  1.00  0.00    -0.051 A 
ATOM     14  C   UNL     1      -1.210  -1.197  -3.369  1.00  0.00     0.004 A 
ATOM     15  C   UNL     1       1.185  -1.163  -3.391  1.00  0.00     0.004 A 
ATOM     16  C   UNL     1      -1.204  -0.747  -2.062  1.00  0.00     0.004 A 
ATOM     17  C   UNL     1       1.190  -0.709  -2.085  1.00  0.00     0.004 A 
ENDBRANCH  10  11
ENDBRANCH   6  10
ENDBRANCH   1   5
BRANCH   2  18
ATOM     18  C   UNL     1       0.399   7.875   0.040  1.00  0.00     0.157 C 
BRANCH  18  19
ATOM     19  C   UNL     1      -0.795   8.795   0.056  1.00  0.00     0.063 A 
ATOM     20  N   UNL     1      -1.735   8.696  -0.863  1.00  0.00    -0.224 NA
ATOM     21  C   UNL     1      -0.930   9.739   1.020  1.00  0.00     0.093 A 
ATOM     22  C   UNL     1      -2.784   9.496  -0.856  1.00  0.00     0.189 A 
ATOM     23  S   UNL     1      -2.477  10.490   0.534  1.00  0.00    -0.105 S 
BRANCH  22  24
ATOM     24  N   UNL     1      -3.858   9.534  -1.736  1.00  0.00    -0.297 N 
ATOM     25  C   UNL     1      -4.843  10.436  -1.558  1.00  0.00     0.267 C 
ATOM     26  H   UNL     1      -3.902   8.872  -2.524  1.00  0.00     0.172 HD
ATOM     27  O   UNL     1      -4.792  11.218  -0.627  1.00  0.00    -0.268 OA
BRANCH  25  28
ATOM     28  C   UNL     1      -5.977  10.476  -2.486  1.00  0.00     0.092 A 
ATOM     29  S   UNL     1      -6.292   9.463  -3.920  1.00  0.00    -0.139 S 
ATOM     30  C   UNL     1      -7.080  11.315  -2.482  1.00  0.00     0.025 A 
ATOM     31  C   UNL     1      -7.801  10.164  -4.407  1.00  0.00     0.065 A 
ATOM     32  C   UNL     1      -8.005  11.136  -3.480  1.00  0.00     0.012 A 
ENDBRANCH  25  28
ENDBRANCH  22  24
ENDBRANCH  18  19
ENDBRANCH   2  18
TORSDOF 7
