REMARK SMILES Cc1ccc(C(=O)NNC(=O)c2cc3c(nc4sccn43)s2)c(C)c1
REMARK SMILES IDX 6 1 7 2 8 3 5 5 1 6 2 7 25 8 3 9 23 10 4 11 24 12 9 13 10 14
REMARK SMILES IDX 11 16 12 17 22 18 13 19 15 20 14 21 16 22 21 23 17 24 20 25
REMARK SMILES IDX 18 26 19 27
REMARK H PARENT 8 4 9 15
REMARK Flexibility Score: inf
ROOT
ATOM      1  C   UNL     1       7.004  -4.622  -0.585  1.00  0.00     0.269 C 
ATOM      2  O   UNL     1       6.081  -5.413  -0.602  1.00  0.00    -0.267 OA
ATOM      3  N   UNL     1       6.771  -3.310  -0.785  1.00  0.00    -0.263 N 
ATOM      4  H   UNL     1       7.553  -2.640  -0.771  1.00  0.00     0.191 HD
ENDROOT
BRANCH   1   5
ATOM      5  C   UNL     1       8.383  -5.100  -0.345  1.00  0.00     0.044 A 
ATOM      6  C   UNL     1      12.370  -6.481   0.350  1.00  0.00     0.044 C 
ATOM      7  C   UNL     1      10.964  -5.994   0.105  1.00  0.00    -0.051 A 
ATOM      8  C   UNL     1       9.902  -6.873   0.215  1.00  0.00     0.007 A 
ATOM      9  C   UNL     1      10.742  -4.669  -0.228  1.00  0.00     0.004 A 
ATOM     10  C   UNL     1       8.613  -6.433  -0.003  1.00  0.00    -0.038 A 
ATOM     11  C   UNL     1       9.459  -4.218  -0.454  1.00  0.00     0.014 A 
ATOM     12  C   UNL     1       7.456  -7.391   0.123  1.00  0.00     0.045 C 
ENDBRANCH   1   5
BRANCH   3  13
ATOM     13  N   UNL     1       5.465  -2.858  -1.013  1.00  0.00    -0.263 N 
ATOM     14  C   UNL     1       5.231  -1.546  -1.214  1.00  0.00     0.279 C 
ATOM     15  H   UNL     1       4.683  -3.528  -1.027  1.00  0.00     0.191 HD
ATOM     16  O   UNL     1       6.156  -0.753  -1.197  1.00  0.00    -0.266 OA
BRANCH  14  17
ATOM     17  C   UNL     1       3.909  -1.088  -1.444  1.00  0.00     0.098 A 
ATOM     18  S   UNL     1       2.396  -2.031  -1.516  1.00  0.00    -0.108 S 
ATOM     19  C   UNL     1       3.466   0.203  -1.669  1.00  0.00     0.054 A 
ATOM     20  C   UNL     1       1.276  -0.690  -1.835  1.00  0.00     0.144 A 
ATOM     21  C   UNL     1       2.115   0.430  -1.872  1.00  0.00     0.085 A 
ATOM     22  N   UNL     1       0.025  -0.307  -2.046  1.00  0.00    -0.208 NA
ATOM     23  N   UNL     1       1.248   1.527  -2.127  1.00  0.00    -0.289 N 
ATOM     24  C   UNL     1      -0.006   0.988  -2.218  1.00  0.00     0.195 A 
ATOM     25  C   UNL     1       1.359   2.889  -2.289  1.00  0.00     0.105 A 
ATOM     26  S   UNL     1      -1.020   2.414  -2.541  1.00  0.00    -0.105 S 
ATOM     27  C   UNL     1       0.281   3.637  -2.525  1.00  0.00     0.087 A 
ENDBRANCH  14  17
ENDBRANCH   3  13
TORSDOF 3
