REMARK SMILES O=C(OCc1c(F)c(F)c(F)c(F)c1F)[C@H]1CCCN1C(=O)[C@]12C[C@H]3C[C@H](C[C@H](C3)C1)C2
REMARK SMILES IDX 2 1 1 2 16 3 18 4 19 5 17 6 20 7 21 8 22 9 23 10 24 11 31 12
REMARK SMILES IDX 32 13 25 14 29 15 27 16 26 17 30 18 28 19 3 20 4 21 5 22
REMARK SMILES IDX 6 23 14 24 8 25 7 26 12 27 15 28 10 29 9 30 13 31 11 32
REMARK H PARENT
REMARK Flexibility Score: inf
ROOT
ATOM      1  C   UNL     1      -0.119   1.040  -0.130  1.00  0.00     0.329 C 
ATOM      2  O   UNL     1      -0.085  -0.151  -0.333  1.00  0.00    -0.250 OA
ENDROOT
BRANCH   1   3
ATOM      3  C   UNL     1       1.159   1.796   0.129  1.00  0.00     0.195 C 
ATOM      4  C   UNL     1       2.577   2.249   2.038  1.00  0.00     0.024 C 
ATOM      5  C   UNL     1       2.955   0.881   1.417  1.00  0.00     0.120 C 
ATOM      6  C   UNL     1       1.119   2.426   1.537  1.00  0.00     0.039 C 
ATOM      7  N   UNL     1       2.303   0.873   0.091  1.00  0.00    -0.328 N 
BRANCH   7   8
ATOM      8  C   UNL     1       2.688   0.143  -0.974  1.00  0.00     0.229 C 
ATOM      9  O   UNL     1       2.018   0.144  -1.984  1.00  0.00    -0.274 OA
BRANCH   8  10
ATOM     10  C   UNL     1       3.953  -0.674  -0.909  1.00  0.00     0.050 C 
ATOM     11  C   UNL     1       4.079  -1.520  -2.177  1.00  0.00     0.020 C 
ATOM     12  C   UNL     1       3.905  -1.592   0.314  1.00  0.00     0.020 C 
ATOM     13  C   UNL     1       5.159   0.261  -0.798  1.00  0.00     0.020 C 
ATOM     14  C   UNL     1       5.362  -2.350  -2.111  1.00  0.00    -0.010 C 
ATOM     15  C   UNL     1       5.188  -2.422   0.380  1.00  0.00    -0.010 C 
ATOM     16  C   UNL     1       6.443  -0.569  -0.732  1.00  0.00    -0.010 C 
ATOM     17  C   UNL     1       6.569  -1.415  -2.000  1.00  0.00     0.007 C 
ATOM     18  C   UNL     1       5.314  -3.268  -0.889  1.00  0.00     0.007 C 
ATOM     19  C   UNL     1       6.394  -1.487   0.491  1.00  0.00     0.007 C 
ENDBRANCH   8  10
ENDBRANCH   7   8
ENDBRANCH   1   3
BRANCH   1  20
ATOM     20  O   UNL     1      -1.293   1.689  -0.141  1.00  0.00    -0.459 OA
BRANCH  20  21
ATOM     21  C   UNL     1      -2.482   0.898  -0.403  1.00  0.00     0.275 C 
BRANCH  21  22
ATOM     22  C   UNL     1      -3.696   1.791  -0.376  1.00  0.00     0.067 A 
ATOM     23  C   UNL     1      -4.129   2.404  -1.539  1.00  0.00     0.171 A 
ATOM     24  C   UNL     1      -4.380   1.992   0.810  1.00  0.00     0.171 A 
ATOM     25  C   UNL     1      -5.246   3.225  -1.515  1.00  0.00     0.198 A 
ATOM     26  F   UNL     1      -3.465   2.202  -2.697  1.00  0.00    -0.203 F 
ATOM     27  C   UNL     1      -5.493   2.818   0.837  1.00  0.00     0.198 A 
ATOM     28  F   UNL     1      -3.959   1.389   1.943  1.00  0.00    -0.203 F 
ATOM     29  C   UNL     1      -5.928   3.432  -0.326  1.00  0.00     0.200 A 
ATOM     30  F   UNL     1      -5.668   3.824  -2.650  1.00  0.00    -0.200 F 
ATOM     31  F   UNL     1      -6.157   3.019   1.996  1.00  0.00    -0.200 F 
ATOM     32  F   UNL     1      -7.016   4.232  -0.302  1.00  0.00    -0.200 F 
ENDBRANCH  21  22
ENDBRANCH  20  21
ENDBRANCH   1  20
TORSDOF 6
