REMARK SMILES Cc1cccc(C[NH+]2CCC(CNC(=O)[C@@H]3c4ccccc4C(=O)N(C)[C@H]3c3c[nH]c4ccccc34)CC2)c1
REMARK SMILES IDX 12 1 11 2 8 3 9 4 38 5 10 7 37 8 7 9 6 10 1 11 2 12 39 13
REMARK SMILES IDX 3 14 4 15 5 16 13 17 14 18 15 20 16 21 27 22 17 23 25 24
REMARK SMILES IDX 22 25 18 26 23 27 26 28 21 29 19 30 24 31 20 32 28 33 36 34
REMARK SMILES IDX 29 35 31 36 35 37 30 38 32 39 34 40 33 42
REMARK H PARENT 8 6 13 19 30 41
REMARK Flexibility Score: inf
ROOT
ATOM      1  C   UNL     1       0.380   5.633   0.870  1.00  0.00     0.119 C 
ENDROOT
BRANCH   1   2
ATOM      2  C   UNL     1       0.493   4.116   1.034  1.00  0.00     0.019 C 
ATOM      3  N   UNL     1      -0.032   1.473  -0.015  1.00  0.00    -0.331 N 
ATOM      4  C   UNL     1      -0.785   1.974   1.154  1.00  0.00     0.262 C 
ATOM      5  C   UNL     1       1.346   2.010   0.000  1.00  0.00     0.262 C 
ATOM      6  H   UNL     1      -0.503   1.788  -0.875  1.00  0.00     0.348 HD
ATOM      7  C   UNL     1      -0.907   3.496   1.050  1.00  0.00     0.067 C 
ATOM      8  C   UNL     1       1.287   3.533  -0.138  1.00  0.00     0.067 C 
BRANCH   3   9
ATOM      9  C   UNL     1       0.002  -0.004   0.002  1.00  0.00     0.299 C 
BRANCH   9  10
ATOM     10  C   UNL     1      -1.388  -0.527   0.259  1.00  0.00     0.006 A 
ATOM     11  C   UNL     1      -3.536  -1.518   3.202  1.00  0.00     0.044 C 
ATOM     12  C   UNL     1      -3.080  -1.251   1.790  1.00  0.00    -0.051 A 
ATOM     13  C   UNL     1      -1.804  -0.775   1.554  1.00  0.00     0.013 A 
ATOM     14  C   UNL     1      -3.937  -1.486   0.731  1.00  0.00     0.003 A 
ATOM     15  C   UNL     1      -3.519  -1.242  -0.564  1.00  0.00     0.001 A 
ATOM     16  C   UNL     1      -2.244  -0.763  -0.800  1.00  0.00     0.009 A 
ENDBRANCH   9  10
ENDBRANCH   3   9
ENDBRANCH   1   2
BRANCH   1  17
ATOM     17  N   UNL     1      -0.275   6.204   2.050  1.00  0.00    -0.355 N 
ATOM     18  C   UNL     1      -0.483   7.534   2.127  1.00  0.00     0.230 C 
ATOM     19  H   UNL     1      -0.577   5.590   2.819  1.00  0.00     0.163 HD
ATOM     20  O   UNL     1      -0.128   8.257   1.221  1.00  0.00    -0.274 OA
BRANCH  18  21
ATOM     21  C   UNL     1      -1.157   8.121   3.340  1.00  0.00     0.136 C 
ATOM     22  C   UNL     1      -1.254   9.636   3.182  1.00  0.00     0.134 C 
ATOM     23  C   UNL     1      -2.533   7.527   3.484  1.00  0.00    -0.020 A 
ATOM     24  N   UNL     1      -2.212   9.993   2.137  1.00  0.00    -0.333 N 
ATOM     25  C   UNL     1      -3.607   8.109   2.809  1.00  0.00     0.044 A 
ATOM     26  C   UNL     1      -2.740   6.415   4.272  1.00  0.00     0.005 A 
ATOM     27  C   UNL     1      -3.374   9.326   2.003  1.00  0.00     0.254 C 
ATOM     28  C   UNL     1      -1.902  11.094   1.221  1.00  0.00     0.147 C 
ATOM     29  C   UNL     1      -4.881   7.555   2.916  1.00  0.00     0.014 A 
ATOM     30  C   UNL     1      -4.009   5.872   4.382  1.00  0.00     0.000 A 
ATOM     31  O   UNL     1      -4.222   9.721   1.228  1.00  0.00    -0.269 OA
ATOM     32  C   UNL     1      -5.074   6.438   3.704  1.00  0.00     0.001 A 
BRANCH  22  33
ATOM     33  C   UNL     1      -1.697  10.243   4.488  1.00  0.00     0.001 A 
ATOM     34  C   UNL     1      -0.837  10.602   5.618  1.00  0.00     0.005 A 
ATOM     35  C   UNL     1      -2.955  10.553   4.838  1.00  0.00     0.089 A 
ATOM     36  C   UNL     1      -1.690  11.133   6.603  1.00  0.00     0.046 A 
ATOM     37  C   UNL     1       0.536  10.518   5.858  1.00  0.00     0.011 A 
ATOM     38  N   UNL     1      -2.970  11.086   6.099  1.00  0.00    -0.361 N 
ATOM     39  C   UNL     1      -1.151  11.570   7.808  1.00  0.00     0.026 A 
ATOM     40  C   UNL     1       1.044  10.950   7.051  1.00  0.00     0.001 A 
ATOM     41  H   UNL     1      -3.814  11.404   6.596  1.00  0.00     0.166 HD
ATOM     42  C   UNL     1       0.206  11.471   8.027  1.00  0.00     0.002 A 
ENDBRANCH  22  33
ENDBRANCH  18  21
ENDBRANCH   1  17
TORSDOF 6
