REMARK SMILES CC(=O)Nc1cccc(NC(=O)C(=O)NCCCc2ccc(N3CCc4ccccc4C3)cc2)c1
REMARK SMILES IDX 16 1 15 2 13 3 14 4 11 6 10 7 12 9 9 10 5 11 35 12 6 13 7 14
REMARK SMILES IDX 8 15 4 16 1 17 2 18 3 19 17 21 18 22 19 23 34 24 20 25 33 26
REMARK SMILES IDX 21 27 22 28 23 29 32 30 24 31 31 32 25 33 26 34 30 35 27 36
REMARK SMILES IDX 29 37 28 38
REMARK H PARENT 15 5 10 8 4 20
REMARK Flexibility Score: inf
ROOT
ATOM      1  C   UNL     1       3.681   2.075   0.269  1.00  0.00     0.116 C 
ENDROOT
BRANCH   1   2
ATOM      2  N   UNL     1       2.420   1.330   0.286  1.00  0.00    -0.348 N 
ATOM      3  C   UNL     1       1.249   1.984   0.145  1.00  0.00     0.309 C 
ATOM      4  O   UNL     1       1.241   3.189   0.004  1.00  0.00    -0.264 OA
ATOM      5  H   UNL     1       2.427   0.307   0.405  1.00  0.00     0.163 HD
BRANCH   3   6
ATOM      6  C   UNL     1      -0.037   1.225   0.163  1.00  0.00     0.313 C 
ATOM      7  N   UNL     1      -1.207   1.878   0.017  1.00  0.00    -0.318 N 
ATOM      8  H   UNL     1      -1.220   2.907  -0.024  1.00  0.00     0.170 HD
ATOM      9  O   UNL     1      -0.028   0.019   0.304  1.00  0.00    -0.263 OA
BRANCH   7  10
ATOM     10  C   UNL     1      -2.401   1.159  -0.079  1.00  0.00     0.043 A 
ATOM     11  C   UNL     1      -3.604  -0.794  -0.792  1.00  0.00     0.043 A 
ATOM     12  C   UNL     1      -2.417  -0.081  -0.704  1.00  0.00     0.052 A 
ATOM     13  C   UNL     1      -4.774  -0.261  -0.265  1.00  0.00     0.026 A 
ATOM     14  C   UNL     1      -4.756   0.976   0.351  1.00  0.00     0.004 A 
ATOM     15  C   UNL     1      -3.575   1.686   0.445  1.00  0.00     0.026 A 
BRANCH  11  16
ATOM     16  N   UNL     1      -3.623  -2.047  -1.415  1.00  0.00    -0.326 N 
ATOM     17  C   UNL     1      -4.677  -3.726  -2.894  1.00  0.00     0.114 C 
ATOM     18  C   UNL     1      -4.697  -2.423  -2.138  1.00  0.00     0.221 C 
ATOM     19  O   UNL     1      -5.679  -1.712  -2.180  1.00  0.00    -0.275 OA
ATOM     20  H   UNL     1      -2.818  -2.681  -1.321  1.00  0.00     0.169 HD
ENDBRANCH  11  16
ENDBRANCH   7  10
ENDBRANCH   3   6
ENDBRANCH   1   2
BRANCH   1  21
ATOM     21  C   UNL     1       4.849   1.103   0.446  1.00  0.00     0.026 C 
BRANCH  21  22
ATOM     22  C   UNL     1       6.167   1.880   0.428  1.00  0.00     0.037 C 
BRANCH  22  23
ATOM     23  C   UNL     1       7.318   0.923   0.603  1.00  0.00    -0.048 A 
ATOM     24  C   UNL     1       7.910   0.346  -0.506  1.00  0.00     0.006 A 
ATOM     25  C   UNL     1       7.783   0.627   1.871  1.00  0.00     0.006 A 
ATOM     26  C   UNL     1       8.964  -0.531  -0.349  1.00  0.00     0.026 A 
ATOM     27  C   UNL     1       8.833  -0.254   2.035  1.00  0.00     0.026 A 
ATOM     28  C   UNL     1       9.430  -0.835   0.924  1.00  0.00     0.037 A 
BRANCH  28  29
ATOM     29  N   UNL     1      10.497  -1.722   1.086  1.00  0.00    -0.367 N 
ATOM     30  C   UNL     1      11.671  -1.276   0.328  1.00  0.00     0.152 C 
ATOM     31  C   UNL     1      10.839  -1.881   2.508  1.00  0.00     0.121 C 
ATOM     32  C   UNL     1      12.843  -2.185   0.589  1.00  0.00    -0.025 A 
ATOM     33  C   UNL     1      11.738  -3.109   2.657  1.00  0.00     0.057 C 
ATOM     34  C   UNL     1      12.879  -3.033   1.675  1.00  0.00    -0.041 A 
ATOM     35  C   UNL     1      13.912  -2.155  -0.296  1.00  0.00     0.006 A 
ATOM     36  C   UNL     1      13.982  -3.848   1.879  1.00  0.00     0.004 A 
ATOM     37  C   UNL     1      15.009  -2.967  -0.093  1.00  0.00     0.000 A 
ATOM     38  C   UNL     1      15.045  -3.816   0.998  1.00  0.00     0.000 A 
ENDBRANCH  28  29
ENDBRANCH  22  23
ENDBRANCH  21  22
ENDBRANCH   1  21
TORSDOF 8
