REMARK SMILES COc1cc2cc(C(=O)N3C[C@H](Br)Cc4c3cc(OC(=O)N(C)C)c3[nH]c(C)cc43)[nH]c2c(OC)c1OC
REMARK SMILES IDX 28 1 27 2 29 3 30 4 15 5 16 6 17 7 18 8 25 9 26 10 10 11
REMARK SMILES IDX 11 12 12 13 14 14 13 15 19 17 20 18 21 19 22 20 23 21 24 22
REMARK SMILES IDX 8 23 9 24 7 25 31 26 6 27 32 28 5 30 33 31 4 32 36 33 3 34
REMARK SMILES IDX 34 35 35 36 37 37 38 38 2 39 1 40
REMARK H PARENT 26 16 31 29
REMARK Flexibility Score: inf
ROOT
ATOM      1  C   UNL     1      -8.720  -4.547   0.193  1.00  0.00     0.064 C 
ATOM      2  C   UNL     1      -7.679  -3.468   0.046  1.00  0.00     0.013 A 
ATOM      3  C   UNL     1      -6.356  -3.649   0.187  1.00  0.00     0.032 A 
ATOM      4  C   UNL     1      -5.719  -2.349  -0.039  1.00  0.00     0.009 A 
ATOM      5  C   UNL     1      -4.388  -1.911  -0.028  1.00  0.00    -0.013 A 
ATOM      6  C   UNL     1      -4.111  -0.585  -0.280  1.00  0.00     0.052 A 
ATOM      7  C   UNL     1      -5.146   0.312  -0.556  1.00  0.00     0.076 A 
ATOM      8  C   UNL     1      -6.459  -0.110  -0.570  1.00  0.00     0.158 A 
ATOM      9  C   UNL     1      -6.760  -1.448  -0.310  1.00  0.00     0.090 A 
ATOM     10  N   UNL     1      -7.941  -2.159  -0.251  1.00  0.00    -0.356 N 
ATOM     11  N   UNL     1      -2.789  -0.113  -0.279  1.00  0.00    -0.306 N 
ATOM     12  C   UNL     1      -1.686  -1.083  -0.289  1.00  0.00     0.141 C 
ATOM     13  C   UNL     1      -2.025  -2.185   0.724  1.00  0.00     0.081 C 
ATOM     14  C   UNL     1      -3.293  -2.903   0.264  1.00  0.00     0.055 C 
ATOM     15  Br  UNL     1      -0.539  -3.468   0.824  1.00  0.00    -0.087 Br
ATOM     16  H   UNL     1      -8.879  -1.764  -0.408  1.00  0.00     0.166 HD
ENDROOT
BRANCH   8  17
ATOM     17  O   UNL     1      -7.457   0.774  -0.836  1.00  0.00    -0.408 OA
BRANCH  17  18
ATOM     18  C   UNL     1      -8.062   1.350   0.221  1.00  0.00     0.414 C 
ATOM     19  O   UNL     1      -7.647   1.144   1.344  1.00  0.00    -0.224 OA
ATOM     20  N   UNL     1      -9.126   2.155   0.032  1.00  0.00    -0.314 N 
ATOM     21  C   UNL     1      -9.784   2.782   1.182  1.00  0.00     0.150 C 
ATOM     22  C   UNL     1      -9.626   2.404  -1.323  1.00  0.00     0.150 C 
ENDBRANCH  17  18
ENDBRANCH   8  17
BRANCH  11  23
ATOM     23  C   UNL     1      -2.536   1.211  -0.265  1.00  0.00     0.274 C 
ATOM     24  O   UNL     1      -3.448   2.003  -0.120  1.00  0.00    -0.267 OA
BRANCH  23  25
ATOM     25  C   UNL     1      -1.159   1.697  -0.423  1.00  0.00     0.106 A 
ATOM     26  N   UNL     1      -0.108   0.971  -0.951  1.00  0.00    -0.347 N 
ATOM     27  C   UNL     1      -0.713   2.933  -0.071  1.00  0.00     0.042 A 
ATOM     28  C   UNL     1       1.023   1.759  -0.943  1.00  0.00     0.093 A 
ATOM     29  H   UNL     1      -0.161   0.001  -1.293  1.00  0.00     0.167 HD
ATOM     30  C   UNL     1       0.663   3.003  -0.392  1.00  0.00     0.008 A 
ATOM     31  C   UNL     1       2.337   1.541  -1.355  1.00  0.00     0.188 A 
ATOM     32  C   UNL     1       1.629   4.013  -0.260  1.00  0.00     0.061 A 
ATOM     33  C   UNL     1       3.279   2.546  -1.219  1.00  0.00     0.205 A 
ATOM     34  C   UNL     1       2.923   3.781  -0.671  1.00  0.00     0.165 A 
BRANCH  31  35
ATOM     35  O   UNL     1       2.694   0.341  -1.889  1.00  0.00    -0.491 OA
ATOM     36  C   UNL     1       3.253  -0.626  -0.998  1.00  0.00     0.278 C 
ENDBRANCH  31  35
BRANCH  33  37
ATOM     37  O   UNL     1       4.561   2.330  -1.621  1.00  0.00    -0.490 OA
ATOM     38  C   UNL     1       4.907   2.755  -2.940  1.00  0.00     0.278 C 
ENDBRANCH  33  37
BRANCH  34  39
ATOM     39  O   UNL     1       3.859   4.760  -0.542  1.00  0.00    -0.493 OA
ATOM     40  C   UNL     1       3.429   5.999   0.026  1.00  0.00     0.278 C 
ENDBRANCH  34  39
ENDBRANCH  23  25
ENDBRANCH  11  23
TORSDOF 7
