REMARK SMILES Cc1ccccc1NC(=O)[C@H]1C(=O)C[C@](C)(O)[C@@H](C(=O)Nc2ccccc2C)[C@@H]1c1c(C)nn(-c2ccccc2)c1C
REMARK SMILES IDX 11 1 29 2 18 3 15 4 14 5 12 6 13 7 16 8 9 9 8 10 10 12 7 13
REMARK SMILES IDX 1 14 2 15 3 16 6 17 4 18 5 19 30 20 41 21 31 22 34 23 42 24
REMARK SMILES IDX 33 25 32 26 35 27 40 28 36 29 39 30 37 31 38 32 19 33 20 34
REMARK SMILES IDX 21 35 22 37 27 38 23 39 26 40 28 41 24 42 25 43 17 44
REMARK H PARENT 8 11 21 36 17 45
REMARK Flexibility Score: inf
ROOT
ATOM      1  C   UNL     1      -3.532   5.903   0.074  1.00  0.00     0.154 C 
ATOM      2  C   UNL     1      -3.530   7.418   0.298  1.00  0.00     0.058 C 
ATOM      3  C   UNL     1      -4.937   7.875   0.690  1.00  0.00     0.119 C 
ATOM      4  C   UNL     1      -5.342   7.239   2.021  1.00  0.00     0.081 C 
ATOM      5  C   UNL     1      -5.412   5.717   1.856  1.00  0.00     0.112 C 
ATOM      6  C   UNL     1      -4.088   5.230   1.310  1.00  0.00     0.148 C 
ATOM      7  O   UNL     1      -3.491   4.328   1.846  1.00  0.00    -0.299 OA
ATOM      8  C   UNL     1      -4.306   7.589   3.091  1.00  0.00     0.043 C 
ENDROOT
BRANCH   1   9
ATOM      9  C   UNL     1      -2.124   5.426  -0.171  1.00  0.00     0.235 C 
ATOM     10  N   UNL     1      -1.883   4.117  -0.387  1.00  0.00    -0.325 N 
ATOM     11  H   UNL     1      -2.669   3.457  -0.473  1.00  0.00     0.169 HD
ATOM     12  O   UNL     1      -1.206   6.220  -0.174  1.00  0.00    -0.274 OA
BRANCH  10  13
ATOM     13  C   UNL     1      -0.566   3.656  -0.493  1.00  0.00     0.044 A 
ATOM     14  C   UNL     1      -1.411   1.727  -1.856  1.00  0.00     0.046 C 
ATOM     15  C   UNL     1      -0.291   2.494  -1.201  1.00  0.00    -0.027 A 
ATOM     16  C   UNL     1       1.009   2.039  -1.300  1.00  0.00     0.005 A 
ATOM     17  C   UNL     1       0.469   4.363   0.105  1.00  0.00     0.026 A 
ATOM     18  C   UNL     1       2.038   2.745  -0.704  1.00  0.00     0.000 A 
ATOM     19  C   UNL     1       1.768   3.906  -0.002  1.00  0.00     0.002 A 
ENDBRANCH  10  13
ENDBRANCH   1   9
BRANCH   2  20
ATOM     20  C   UNL     1      -3.107   8.114  -0.970  1.00  0.00     0.002 A 
ATOM     21  C   UNL     1      -1.981   8.846  -1.138  1.00  0.00     0.045 A 
ATOM     22  C   UNL     1      -3.805   8.111  -2.182  1.00  0.00     0.064 A 
ATOM     23  N   UNL     1      -1.970   9.296  -2.413  1.00  0.00    -0.238 N 
ATOM     24  C   UNL     1      -0.929   9.112  -0.093  1.00  0.00     0.067 C 
ATOM     25  N   UNL     1      -3.127   8.824  -3.046  1.00  0.00    -0.173 NA
ATOM     26  C   UNL     1      -5.113   7.412  -2.447  1.00  0.00     0.069 C 
BRANCH  23  27
ATOM     27  C   UNL     1      -0.977  10.094  -2.998  1.00  0.00     0.065 A 
ATOM     28  C   UNL     1       0.364   9.806  -2.783  1.00  0.00     0.028 A 
ATOM     29  C   UNL     1      -1.333  11.172  -3.798  1.00  0.00     0.028 A 
ATOM     30  C   UNL     1       1.340  10.594  -3.360  1.00  0.00     0.002 A 
ATOM     31  C   UNL     1      -0.352  11.960  -4.368  1.00  0.00     0.002 A 
ATOM     32  C   UNL     1       0.983  11.670  -4.152  1.00  0.00     0.000 A 
ENDBRANCH  23  27
ENDBRANCH   2  20
BRANCH   3  33
ATOM     33  C   UNL     1      -4.956   9.376   0.827  1.00  0.00     0.231 C 
ATOM     34  O   UNL     1      -3.942  10.015   0.640  1.00  0.00    -0.274 OA
ATOM     35  N   UNL     1      -6.100  10.008   1.157  1.00  0.00    -0.325 N 
ATOM     36  H   UNL     1      -6.945   9.462   1.376  1.00  0.00     0.169 HD
BRANCH  35  37
ATOM     37  C   UNL     1      -6.139  11.406   1.201  1.00  0.00     0.044 A 
ATOM     38  C   UNL     1      -7.340  12.075   1.007  1.00  0.00    -0.027 A 
ATOM     39  C   UNL     1      -4.975  12.128   1.433  1.00  0.00     0.026 A 
ATOM     40  C   UNL     1      -7.376  13.455   1.057  1.00  0.00     0.005 A 
ATOM     41  C   UNL     1      -8.604  11.296   0.749  1.00  0.00     0.046 C 
ATOM     42  C   UNL     1      -5.017  13.507   1.476  1.00  0.00     0.002 A 
ATOM     43  C   UNL     1      -6.216  14.171   1.289  1.00  0.00     0.000 A 
ENDBRANCH  35  37
ENDBRANCH   3  33
BRANCH   4  44
ATOM     44  O   UNL     1      -6.622   7.735   2.417  1.00  0.00    -0.389 OA
ATOM     45  H   UNL     1      -7.293   7.508   1.725  1.00  0.00     0.211 HD
ENDBRANCH   4  44
TORSDOF 7
