REMARK SMILES O=C1NCCN(Cc2ccc3ccccc3c2)[C@H]1CC(=O)N1CCc2c(Cl)cccc2C1
REMARK SMILES IDX 5 1 4 2 3 3 2 4 1 5 18 6 6 7 7 9 8 10 13 11 12 12 14 13
REMARK SMILES IDX 11 14 15 15 16 16 10 17 17 18 9 19 19 20 20 21 21 22 22 23
REMARK SMILES IDX 32 24 23 25 31 26 24 27 25 28 30 29 26 30 29 31 28 32 27 33
REMARK H PARENT 3 8
REMARK Flexibility Score: inf
ROOT
ATOM      1  C   UNL     1      -5.282   7.288   4.781  1.00  0.00     0.107 C 
ATOM      2  C   UNL     1      -6.098   6.236   5.534  1.00  0.00     0.131 C 
ATOM      3  N   UNL     1      -6.732   5.323   4.587  1.00  0.00    -0.353 N 
ATOM      4  C   UNL     1      -6.330   5.198   3.318  1.00  0.00     0.237 C 
ATOM      5  O   UNL     1      -6.893   4.392   2.607  1.00  0.00    -0.273 OA
ATOM      6  C   UNL     1      -5.210   6.012   2.736  1.00  0.00     0.156 C 
ATOM      7  N   UNL     1      -4.400   6.586   3.827  1.00  0.00    -0.285 NA
ATOM      8  H   UNL     1      -7.525   4.751   4.911  1.00  0.00     0.163 HD
ENDROOT
BRANCH   7   9
ATOM      9  C   UNL     1      -3.398   7.526   3.275  1.00  0.00     0.121 C 
BRANCH   9  10
ATOM     10  C   UNL     1      -2.360   7.808   4.330  1.00  0.00    -0.033 A 
ATOM     11  C   UNL     1       1.598   7.827   7.356  1.00  0.00     0.001 A 
ATOM     12  C   UNL     1       0.498   8.623   7.268  1.00  0.00     0.009 A 
ATOM     13  C   UNL     1       1.778   6.754   6.485  1.00  0.00     0.001 A 
ATOM     14  C   UNL     1      -0.472   8.363   6.286  1.00  0.00    -0.018 A 
ATOM     15  C   UNL     1       0.859   6.471   5.522  1.00  0.00     0.009 A 
ATOM     16  C   UNL     1      -0.289   7.271   5.400  1.00  0.00    -0.018 A 
ATOM     17  C   UNL     1      -1.621   9.163   6.164  1.00  0.00     0.009 A 
ATOM     18  C   UNL     1      -1.260   7.011   4.418  1.00  0.00     0.013 A 
ATOM     19  C   UNL     1      -2.537   8.884   5.197  1.00  0.00     0.006 A 
ENDBRANCH   9  10
ENDBRANCH   7   9
BRANCH   6  20
ATOM     20  C   UNL     1      -4.320   5.112   1.877  1.00  0.00     0.129 C 
BRANCH  20  21
ATOM     21  C   UNL     1      -3.698   4.047   2.743  1.00  0.00     0.224 C 
ATOM     22  O   UNL     1      -3.863   4.069   3.945  1.00  0.00    -0.275 OA
BRANCH  21  23
ATOM     23  N   UNL     1      -2.957   3.070   2.183  1.00  0.00    -0.338 N 
ATOM     24  C   UNL     1      -2.739   3.015   0.734  1.00  0.00     0.155 C 
ATOM     25  C   UNL     1      -2.336   2.016   3.001  1.00  0.00     0.124 C 
ATOM     26  C   UNL     1      -2.920   1.600   0.246  1.00  0.00    -0.024 A 
ATOM     27  C   UNL     1      -2.964   0.681   2.605  1.00  0.00     0.059 C 
ATOM     28  C   UNL     1      -3.001   0.529   1.107  1.00  0.00    -0.023 A 
ATOM     29  C   UNL     1      -2.986   1.391  -1.125  1.00  0.00     0.006 A 
ATOM     30  C   UNL     1      -3.137  -0.756   0.593  1.00  0.00     0.044 A 
ATOM     31  C   UNL     1      -3.133   0.116  -1.633  1.00  0.00     0.002 A 
ATOM     32  C   UNL     1      -3.204  -0.962  -0.771  1.00  0.00     0.021 A 
ATOM     33  Cl  UNL     1      -3.226  -2.111   1.673  1.00  0.00    -0.084 Cl
ENDBRANCH  21  23
ENDBRANCH  20  21
ENDBRANCH   6  20
TORSDOF 5
