REMARK SMILES C[C@H](NC(=O)[C@@H](C)OC(=O)c1ccc(CNC(=O)[C@]23C[C@H]4C[C@H](C[C@H](C4)C2)C3)cc1)c1ccccc1
REMARK SMILES IDX 9 1 10 2 8 3 6 4 7 5 4 6 3 7 5 9 2 10 1 11 31 12 36 13 32 14
REMARK SMILES IDX 35 15 33 16 34 17 11 18 30 19 12 20 29 21 13 22 14 23 15 24
REMARK SMILES IDX 16 25 17 26 18 28 19 29 20 30 27 31 28 32 21 33 25 34 23 35
REMARK SMILES IDX 22 36 26 37 24 38
REMARK H PARENT 3 8 16 27
REMARK Flexibility Score: inf
ROOT
ATOM      1  C   UNL     1      -6.872   4.796   0.061  1.00  0.00     0.338 C 
ATOM      2  O   UNL     1      -7.344   5.191  -0.987  1.00  0.00    -0.246 OA
ENDROOT
BRANCH   1   3
ATOM      3  O   UNL     1      -7.385   5.221   1.232  1.00  0.00    -0.449 OA
BRANCH   3   4
ATOM      4  C   UNL     1      -8.500   6.149   1.167  1.00  0.00     0.262 C 
ATOM      5  C   UNL     1      -7.968   7.583   1.145  1.00  0.00     0.064 C 
BRANCH   4   6
ATOM      6  C   UNL     1      -9.383   5.958   2.372  1.00  0.00     0.261 C 
ATOM      7  N   UNL     1     -10.539   6.644   2.475  1.00  0.00    -0.346 N 
ATOM      8  H   UNL     1     -10.818   7.298   1.731  1.00  0.00     0.164 HD
ATOM      9  O   UNL     1      -9.055   5.187   3.249  1.00  0.00    -0.271 OA
BRANCH   7  10
ATOM     10  C   UNL     1     -11.399   6.458   3.647  1.00  0.00     0.109 C 
ATOM     11  C   UNL     1     -10.924   7.374   4.778  1.00  0.00     0.036 C 
BRANCH  10  12
ATOM     12  C   UNL     1     -12.821   6.801   3.287  1.00  0.00    -0.026 A 
ATOM     13  C   UNL     1     -13.862   6.031   3.771  1.00  0.00     0.006 A 
ATOM     14  C   UNL     1     -13.085   7.889   2.476  1.00  0.00     0.006 A 
ATOM     15  C   UNL     1     -15.166   6.345   3.439  1.00  0.00     0.000 A 
ATOM     16  C   UNL     1     -14.390   8.201   2.142  1.00  0.00     0.000 A 
ATOM     17  C   UNL     1     -15.431   7.431   2.625  1.00  0.00     0.000 A 
ENDBRANCH  10  12
ENDBRANCH   7  10
ENDBRANCH   4   6
ENDBRANCH   3   4
ENDBRANCH   1   3
BRANCH   1  18
ATOM     18  C   UNL     1      -5.737   3.851   0.050  1.00  0.00     0.060 A 
ATOM     19  C   UNL     1      -5.192   3.396   1.253  1.00  0.00     0.016 A 
ATOM     20  C   UNL     1      -5.204   3.409  -1.162  1.00  0.00     0.016 A 
ATOM     21  C   UNL     1      -4.135   2.510   1.236  1.00  0.00     0.006 A 
ATOM     22  C   UNL     1      -4.143   2.527  -1.165  1.00  0.00     0.006 A 
ATOM     23  C   UNL     1      -3.608   2.080   0.030  1.00  0.00    -0.029 A 
BRANCH  23  24
ATOM     24  C   UNL     1      -2.449   1.117   0.020  1.00  0.00     0.151 C 
BRANCH  24  25
ATOM     25  N   UNL     1      -1.191   1.867   0.018  1.00  0.00    -0.352 N 
ATOM     26  C   UNL     1      -0.014   1.209   0.009  1.00  0.00     0.226 C 
ATOM     27  H   UNL     1      -1.205   2.897   0.023  1.00  0.00     0.163 HD
ATOM     28  O   UNL     1       0.002  -0.004   0.002  1.00  0.00    -0.274 OA
BRANCH  26  29
ATOM     29  C   UNL     1       1.280   1.980   0.001  1.00  0.00     0.050 C 
ATOM     30  C   UNL     1       2.457   1.002  -0.016  1.00  0.00     0.020 C 
ATOM     31  C   UNL     1       1.361   2.854   1.254  1.00  0.00     0.020 C 
ATOM     32  C   UNL     1       1.337   2.867  -1.245  1.00  0.00     0.020 C 
ATOM     33  C   UNL     1       3.771   1.784  -0.024  1.00  0.00    -0.010 C 
ATOM     34  C   UNL     1       2.676   3.637   1.245  1.00  0.00    -0.010 C 
ATOM     35  C   UNL     1       2.652   3.650  -1.253  1.00  0.00    -0.010 C 
ATOM     36  C   UNL     1       3.828   2.672  -1.270  1.00  0.00     0.007 C 
ATOM     37  C   UNL     1       3.852   2.658   1.229  1.00  0.00     0.007 C 
ATOM     38  C   UNL     1       2.733   4.524   0.000  1.00  0.00     0.007 C 
ENDBRANCH  26  29
ENDBRANCH  24  25
ENDBRANCH  23  24
ENDBRANCH   1  18
TORSDOF 9
