REMARK SMILES CCCCOc1ccc([C@H]2C(C(=O)Nc3ccccc3)=C(C)Nc3nc4ccccc4n32)cc1
REMARK SMILES IDX 6 1 7 2 8 3 9 4 33 5 34 6 5 7 4 8 3 9 2 10 1 11 10 12 32 13
REMARK SMILES IDX 11 14 24 15 31 16 21 17 23 18 25 19 26 20 30 21 22 22 27 24
REMARK SMILES IDX 29 25 28 26 12 27 13 28 14 29 15 31 20 32 16 33 19 34 17 35
REMARK SMILES IDX 18 36
REMARK H PARENT 23 23 14 30
REMARK Flexibility Score: inf
ROOT
ATOM      1  C   UNL     1       0.298   4.214   4.863  1.00  0.00     0.119 A 
ATOM      2  C   UNL     1       0.212   5.335   4.051  1.00  0.00     0.047 A 
ATOM      3  C   UNL     1       0.105   5.189   2.682  1.00  0.00     0.010 A 
ATOM      4  C   UNL     1       0.085   3.925   2.120  1.00  0.00    -0.020 A 
ATOM      5  C   UNL     1       0.165   2.806   2.928  1.00  0.00     0.010 A 
ATOM      6  C   UNL     1       0.278   2.947   4.297  1.00  0.00     0.047 A 
ENDROOT
BRANCH   1   7
ATOM      7  O   UNL     1       0.402   4.355   6.211  1.00  0.00    -0.494 OA
BRANCH   7   8
ATOM      8  C   UNL     1       0.487   3.157   6.984  1.00  0.00     0.229 C 
BRANCH   8   9
ATOM      9  C   UNL     1       0.598   3.514   8.468  1.00  0.00     0.041 C 
BRANCH   9  10
ATOM     10  C   UNL     1       0.689   2.231   9.296  1.00  0.00     0.000 C 
ATOM     11  C   UNL     1       0.799   2.588  10.780  1.00  0.00     0.004 C 
ENDBRANCH   9  10
ENDBRANCH   8   9
ENDBRANCH   7   8
ENDBRANCH   1   7
BRANCH   4  12
ATOM     12  C   UNL     1      -0.032   3.768   0.626  1.00  0.00     0.159 C 
ATOM     13  N   UNL     1      -1.243   3.011   0.309  1.00  0.00    -0.298 N 
ATOM     14  C   UNL     1       1.173   3.034   0.104  1.00  0.00     0.064 C 
ATOM     15  C   UNL     1      -1.220   1.709  -0.143  1.00  0.00     0.209 A 
ATOM     16  C   UNL     1      -2.553   3.389   0.380  1.00  0.00     0.071 A 
ATOM     17  C   UNL     1       1.133   1.765  -0.322  1.00  0.00     0.026 C 
ATOM     18  N   UNL     1      -0.025   1.028  -0.326  1.00  0.00    -0.329 N 
ATOM     19  N   UNL     1      -2.437   1.282  -0.343  1.00  0.00    -0.213 NA
ATOM     20  C   UNL     1      -3.310   2.266  -0.051  1.00  0.00     0.091 A 
ATOM     21  C   UNL     1      -3.179   4.576   0.739  1.00  0.00     0.029 A 
ATOM     22  C   UNL     1       2.405   1.122  -0.813  1.00  0.00     0.065 C 
ATOM     23  H   UNL     1      -0.008   0.007  -0.459  1.00  0.00     0.169 HD
ATOM     24  C   UNL     1      -4.708   2.319  -0.100  1.00  0.00     0.031 A 
ATOM     25  C   UNL     1      -4.563   4.605   0.683  1.00  0.00     0.002 A 
ATOM     26  C   UNL     1      -5.304   3.509   0.275  1.00  0.00     0.002 A 
BRANCH  14  27
ATOM     27  C   UNL     1       2.411   3.719   0.061  1.00  0.00     0.255 C 
ATOM     28  O   UNL     1       3.406   3.153  -0.356  1.00  0.00    -0.269 OA
ATOM     29  N   UNL     1       2.489   4.997   0.481  1.00  0.00    -0.322 N 
ATOM     30  H   UNL     1       1.634   5.502   0.756  1.00  0.00     0.170 HD
BRANCH  29  31
ATOM     31  C   UNL     1       3.730   5.638   0.543  1.00  0.00     0.041 A 
ATOM     32  C   UNL     1       3.823   7.001   0.291  1.00  0.00     0.026 A 
ATOM     33  C   UNL     1       4.872   4.915   0.864  1.00  0.00     0.026 A 
ATOM     34  C   UNL     1       5.051   7.631   0.354  1.00  0.00     0.002 A 
ATOM     35  C   UNL     1       6.097   5.550   0.920  1.00  0.00     0.002 A 
ATOM     36  C   UNL     1       6.186   6.907   0.668  1.00  0.00     0.000 A 
ENDBRANCH  29  31
ENDBRANCH  14  27
ENDBRANCH   4  12
TORSDOF 7
