REMARK SMILES Cc1c(-c2ccc(O)cc2)nn(-c2ccc(O)cc2)c1-c1ccc(OCC[NH+]2CCCCC2)cc1
REMARK SMILES IDX 21 1 22 2 23 3 24 4 34 5 35 6 20 7 1 8 2 9 3 10 12 11 11 12
REMARK SMILES IDX 4 13 10 14 5 15 9 16 6 17 7 18 8 19 13 21 19 22 14 23 18 24
REMARK SMILES IDX 15 25 16 26 17 27 25 29 26 30 27 31 28 32 29 33 33 34 30 36
REMARK SMILES IDX 32 37 31 38
REMARK H PARENT 8 20 17 28 28 35
REMARK Flexibility Score: inf
ROOT
ATOM      1  C   UNL     1      -2.718   1.972   2.017  1.00  0.00     0.001 A 
ATOM      2  C   UNL     1      -3.928   2.512   1.581  1.00  0.00     0.014 A 
ATOM      3  C   UNL     1      -4.411   3.670   2.152  1.00  0.00     0.047 A 
ATOM      4  C   UNL     1      -3.689   4.305   3.154  1.00  0.00     0.119 A 
ATOM      5  C   UNL     1      -2.481   3.774   3.587  1.00  0.00     0.047 A 
ATOM      6  C   UNL     1      -1.995   2.614   3.024  1.00  0.00     0.014 A 
ENDROOT
BRANCH   1   7
ATOM      7  C   UNL     1      -2.199   0.727   1.410  1.00  0.00     0.078 A 
ATOM      8  C   UNL     1      -4.383  -0.610   1.435  1.00  0.00     0.049 C 
ATOM      9  C   UNL     1      -2.917  -0.405   1.152  1.00  0.00     0.003 A 
ATOM     10  C   UNL     1      -2.045  -1.344   0.576  1.00  0.00     0.096 A 
ATOM     11  N   UNL     1      -0.914   0.500   1.006  1.00  0.00    -0.232 N 
ATOM     12  N   UNL     1      -0.849  -0.798   0.484  1.00  0.00    -0.167 NA
BRANCH  10  13
ATOM     13  C   UNL     1      -2.410  -2.714   0.140  1.00  0.00     0.003 A 
ATOM     14  C   UNL     1      -3.620  -2.940  -0.515  1.00  0.00     0.014 A 
ATOM     15  C   UNL     1      -1.541  -3.778   0.378  1.00  0.00     0.014 A 
ATOM     16  C   UNL     1      -3.956  -4.214  -0.920  1.00  0.00     0.047 A 
ATOM     17  C   UNL     1      -1.885  -5.051  -0.025  1.00  0.00     0.047 A 
ATOM     18  C   UNL     1      -3.091  -5.272  -0.676  1.00  0.00     0.115 A 
BRANCH  18  19
ATOM     19  O   UNL     1      -3.426  -6.527  -1.076  1.00  0.00    -0.508 OA
ATOM     20  H   UNL     1      -3.387  -7.077  -0.253  1.00  0.00     0.293 HD
ENDBRANCH  18  19
ENDBRANCH  10  13
BRANCH  11  21
ATOM     21  C   UNL     1       0.150   1.408   1.092  1.00  0.00     0.066 A 
ATOM     22  C   UNL     1      -0.080   2.766   0.917  1.00  0.00     0.032 A 
ATOM     23  C   UNL     1       1.434   0.950   1.357  1.00  0.00     0.032 A 
ATOM     24  C   UNL     1       0.970   3.659   0.996  1.00  0.00     0.048 A 
ATOM     25  C   UNL     1       2.483   1.844   1.436  1.00  0.00     0.048 A 
ATOM     26  C   UNL     1       2.253   3.201   1.256  1.00  0.00     0.115 A 
BRANCH  26  27
ATOM     27  O   UNL     1       3.287   4.081   1.333  1.00  0.00    -0.508 OA
ATOM     28  H   UNL     1       3.943   3.763   0.663  1.00  0.00     0.293 HD
ENDBRANCH  26  27
ENDBRANCH  11  21
ENDBRANCH   1   7
BRANCH   4  29
ATOM     29  O   UNL     1      -4.165   5.449   3.711  1.00  0.00    -0.488 OA
BRANCH  29  30
ATOM     30  C   UNL     1      -5.413   5.940   3.218  1.00  0.00     0.290 C 
BRANCH  30  31
ATOM     31  C   UNL     1      -5.784   7.226   3.959  1.00  0.00     0.304 C 
BRANCH  31  32
ATOM     32  N   UNL     1      -4.766   8.255   3.659  1.00  0.00    -0.332 N 
ATOM     33  C   UNL     1      -4.814   9.325   4.677  1.00  0.00     0.262 C 
ATOM     34  C   UNL     1      -5.003   8.822   2.314  1.00  0.00     0.262 C 
ATOM     35  H   UNL     1      -3.833   7.819   3.677  1.00  0.00     0.348 HD
ATOM     36  C   UNL     1      -3.676  10.314   4.413  1.00  0.00     0.062 C 
ATOM     37  C   UNL     1      -3.871   9.795   1.979  1.00  0.00     0.062 C 
ATOM     38  C   UNL     1      -3.848  10.921   3.017  1.00  0.00     0.012 C 
ENDBRANCH  31  32
ENDBRANCH  30  31
ENDBRANCH  29  30
ENDBRANCH   4  29
TORSDOF 9
