REMARK SMILES O=C(CCC[NH+]1CCN(Cc2ccc(O)cc2)CC1)N[C@H]1c2ccccc2SC[C@@H]2CCCC[C@H]21
REMARK SMILES IDX 3 1 2 2 20 3 1 5 21 6 22 8 24 9 23 10 25 11 26 12 27 13
REMARK SMILES IDX 28 14 29 15 30 16 35 17 31 18 34 19 32 21 33 22 4 23 5 24
REMARK SMILES IDX 6 25 19 26 7 27 18 29 8 30 9 31 10 32 11 33 17 34 12 35
REMARK SMILES IDX 16 36 13 37 14 38 15 39
REMARK H PARENT 20 4 6 28 15 40
REMARK Flexibility Score: 80.00
ROOT
ATOM      1  C   UNL     1       0.111   1.202   2.513  1.00  0.00     0.106 C 
ENDROOT
BRANCH   1   2
ATOM      2  C   UNL     1      -0.594   1.688   3.753  1.00  0.00     0.220 C 
ATOM      3  N   UNL     1      -0.218   1.232   4.964  1.00  0.00    -0.349 N 
ATOM      4  H   UNL     1       0.552   0.553   5.043  1.00  0.00     0.164 HD
ATOM      5  O   UNL     1      -1.500   2.488   3.660  1.00  0.00    -0.275 OA
BRANCH   3   6
ATOM      6  C   UNL     1      -0.903   1.705   6.169  1.00  0.00     0.117 CG0
ATOM      7  G   UNL     1       0.069   1.656   7.362  1.00  0.00     0.000 G0
BRANCH   6   8
ATOM      8  C   UNL     1      -2.096   0.828   6.441  1.00  0.00    -0.012 A 
ATOM      9  C   UNL     1      -4.390   0.600   7.089  1.00  0.00     0.000 A 
ATOM     10  C   UNL     1      -3.294   1.405   6.838  1.00  0.00     0.007 A 
ATOM     11  C   UNL     1      -4.306  -0.773   6.949  1.00  0.00     0.001 A 
ATOM     12  C   UNL     1      -3.113  -1.354   6.554  1.00  0.00     0.015 A 
ATOM     13  C   UNL     1      -2.023  -0.536   6.305  1.00  0.00     0.012 A 
BRANCH  13  14
ATOM     14  S   UNL     1      -0.469  -1.228   5.795  1.00  0.00    -0.125 SA
BRANCH  14  15
ATOM     15  C   UNL     1       0.600  -0.850   7.212  1.00  0.00     0.079 C 
BRANCH  15  16
ATOM     16  C   UNL     1       1.119   0.584   7.148  1.00  0.00     0.005 C 
ATOM     17  C   UNL     1       0.069   1.656   7.362  1.00  0.00     0.020 CG0
ATOM     18  C   UNL     1       2.234   0.690   8.198  1.00  0.00     0.005 C 
ATOM     19  C   UNL     1       0.705   3.052   7.444  1.00  0.00     0.006 C 
ATOM     20  G   UNL     1      -0.903   1.705   6.169  1.00  0.00     0.000 G0
ATOM     21  C   UNL     1       2.860   2.081   8.187  1.00  0.00     0.000 C 
ATOM     22  C   UNL     1       1.770   3.101   8.536  1.00  0.00     0.000 C 
ENDBRANCH  15  16
ENDBRANCH  14  15
ENDBRANCH  13  14
ENDBRANCH   6   8
ENDBRANCH   3   6
ENDBRANCH   1   2
BRANCH   1  23
ATOM     23  C   UNL     1      -0.505   1.868   1.281  1.00  0.00     0.071 C 
BRANCH  23  24
ATOM     24  C   UNL     1       0.211   1.375   0.022  1.00  0.00     0.262 C 
BRANCH  24  25
ATOM     25  N   UNL     1      -0.381   2.014  -1.160  1.00  0.00    -0.333 N 
ATOM     26  C   UNL     1       0.427   1.752  -2.360  1.00  0.00     0.278 C 
ATOM     27  C   UNL     1      -1.769   1.575  -1.357  1.00  0.00     0.278 C 
ATOM     28  H   UNL     1      -0.389   3.031  -0.998  1.00  0.00     0.348 HD
ATOM     29  C   UNL     1      -0.178   2.500  -3.551  1.00  0.00     0.146 C 
ATOM     30  C   UNL     1      -2.373   2.323  -2.549  1.00  0.00     0.146 C 
ATOM     31  N   UNL     1      -1.566   2.061  -3.748  1.00  0.00    -0.288 NA
BRANCH  31  32
ATOM     32  C   UNL     1      -2.158   2.701  -4.931  1.00  0.00     0.120 C 
BRANCH  32  33
ATOM     33  C   UNL     1      -3.639   2.425  -4.963  1.00  0.00    -0.034 A 
ATOM     34  C   UNL     1      -4.517   3.293  -4.340  1.00  0.00     0.009 A 
ATOM     35  C   UNL     1      -4.119   1.307  -5.620  1.00  0.00     0.009 A 
ATOM     36  C   UNL     1      -5.875   3.042  -4.368  1.00  0.00     0.046 A 
ATOM     37  C   UNL     1      -5.476   1.048  -5.647  1.00  0.00     0.046 A 
ATOM     38  C   UNL     1      -6.358   1.918  -5.022  1.00  0.00     0.115 A 
BRANCH  38  39
ATOM     39  O   UNL     1      -7.694   1.669  -5.051  1.00  0.00    -0.508 OA
ATOM     40  H   UNL     1      -7.792   0.762  -4.665  1.00  0.00     0.293 HD
ENDBRANCH  38  39
ENDBRANCH  32  33
ENDBRANCH  31  32
ENDBRANCH  24  25
ENDBRANCH  23  24
ENDBRANCH   1  23
TORSDOF 8
