REMARK SMILES C[C@H](NC(=O)c1ccc(CN2CC=C(c3ccc(F)cc3)CC2)[nH]c1=O)c1cccc2ccccc12
REMARK SMILES IDX 6 1 7 2 8 3 9 4 24 5 25 6 26 7 4 9 3 10 5 12 2 13 1 14 27 15
REMARK SMILES IDX 36 16 28 17 31 18 35 19 29 20 30 21 32 22 34 23 33 24 10 25
REMARK SMILES IDX 11 26 23 27 12 28 22 29 13 30 14 31 15 32 21 33 16 34 20 35
REMARK SMILES IDX 17 36 18 37 19 38
REMARK H PARENT 24 8 3 11
REMARK Flexibility Score: inf
ROOT
ATOM      1  C   UNL     1      -2.059   2.443   3.506  1.00  0.00     0.104 A 
ATOM      2  C   UNL     1      -1.992   1.074   3.254  1.00  0.00     0.021 A 
ATOM      3  C   UNL     1      -1.359   0.632   2.092  1.00  0.00     0.024 A 
ATOM      4  C   UNL     1      -0.819   1.528   1.227  1.00  0.00     0.032 A 
ATOM      5  N   UNL     1      -0.875   2.859   1.468  1.00  0.00    -0.324 N 
ATOM      6  C   UNL     1      -1.479   3.340   2.572  1.00  0.00     0.261 A 
ATOM      7  O   UNL     1      -1.524   4.542   2.769  1.00  0.00    -0.269 OA
ATOM      8  H   UNL     1      -0.449   3.514   0.797  1.00  0.00     0.170 HD
ENDROOT
BRANCH   1   9
ATOM      9  C   UNL     1      -2.717   2.949   4.720  1.00  0.00     0.257 C 
ATOM     10  N   UNL     1      -2.667   4.263   5.016  1.00  0.00    -0.345 N 
ATOM     11  H   UNL     1      -2.238   4.925   4.353  1.00  0.00     0.164 HD
ATOM     12  O   UNL     1      -3.307   2.182   5.457  1.00  0.00    -0.269 OA
BRANCH  10  13
ATOM     13  C   UNL     1      -3.225   4.751   6.279  1.00  0.00     0.110 C 
ATOM     14  C   UNL     1      -2.142   4.721   7.360  1.00  0.00     0.036 C 
BRANCH  13  15
ATOM     15  C   UNL     1      -3.716   6.165   6.099  1.00  0.00    -0.018 A 
ATOM     16  C   UNL     1      -4.748   6.663   6.912  1.00  0.00    -0.013 A 
ATOM     17  C   UNL     1      -3.165   6.964   5.145  1.00  0.00     0.006 A 
ATOM     18  C   UNL     1      -5.193   7.996   6.731  1.00  0.00    -0.018 A 
ATOM     19  C   UNL     1      -5.345   5.866   7.904  1.00  0.00     0.009 A 
ATOM     20  C   UNL     1      -3.606   8.273   4.964  1.00  0.00     0.001 A 
ATOM     21  C   UNL     1      -4.601   8.791   5.736  1.00  0.00     0.009 A 
ATOM     22  C   UNL     1      -6.223   8.496   7.548  1.00  0.00     0.009 A 
ATOM     23  C   UNL     1      -6.343   6.381   8.672  1.00  0.00     0.001 A 
ATOM     24  C   UNL     1      -6.784   7.691   8.491  1.00  0.00     0.001 A 
ENDBRANCH  13  15
ENDBRANCH  10  13
ENDBRANCH   1   9
BRANCH   4  25
ATOM     25  C   UNL     1      -0.139   1.031  -0.023  1.00  0.00     0.138 C 
BRANCH  25  26
ATOM     26  N   UNL     1      -0.911   1.471  -1.206  1.00  0.00    -0.294 NA
ATOM     27  C   UNL     1      -0.136   1.223  -2.439  1.00  0.00     0.090 C 
ATOM     28  C   UNL     1      -1.224   2.908  -1.099  1.00  0.00     0.112 C 
ATOM     29  C   UNL     1      -1.077   1.410  -3.631  1.00  0.00     0.051 C 
ATOM     30  C   UNL     1      -1.875   3.382  -2.366  1.00  0.00    -0.007 C 
ATOM     31  C   UNL     1      -1.808   2.718  -3.499  1.00  0.00    -0.042 C 
BRANCH  31  32
ATOM     32  C   UNL     1      -2.479   3.278  -4.691  1.00  0.00    -0.022 A 
ATOM     33  C   UNL     1      -2.037   4.482  -5.241  1.00  0.00     0.011 A 
ATOM     34  C   UNL     1      -3.552   2.603  -5.272  1.00  0.00     0.011 A 
ATOM     35  C   UNL     1      -2.666   5.001  -6.354  1.00  0.00     0.040 A 
ATOM     36  C   UNL     1      -4.178   3.134  -6.381  1.00  0.00     0.040 A 
ATOM     37  C   UNL     1      -3.735   4.329  -6.924  1.00  0.00     0.123 A 
ATOM     38  F   UNL     1      -4.348   4.842  -8.013  1.00  0.00    -0.207 F 
ENDBRANCH  31  32
ENDBRANCH  25  26
ENDBRANCH   4  25
TORSDOF 6
