REMARK SMILES CN(C)c1ccc([C@H](CNC(=O)NCc2cccc3ccccc23)N2CCc3ccccc32)cc1
REMARK SMILES IDX 9 1 8 2 7 3 4 4 35 5 5 6 34 7 6 8 2 9 1 10 3 11 25 12 33 13
REMARK SMILES IDX 26 14 28 15 32 16 27 17 29 18 31 19 30 20 10 21 11 22 12 24
REMARK SMILES IDX 13 25 14 27 15 28 24 29 16 30 19 31 23 32 17 33 18 34 20 35
REMARK SMILES IDX 22 36 21 37
REMARK H PARENT 10 23 13 26
REMARK Flexibility Score: inf
ROOT
ATOM      1  C   UNL     1      -1.579   1.585   2.010  1.00  0.00     0.147 C 
ENDROOT
BRANCH   1   2
ATOM      2  C   UNL     1      -2.176   1.812   0.619  1.00  0.00     0.132 C 
BRANCH   2   3
ATOM      3  C   UNL     1      -3.338   2.767   0.720  1.00  0.00    -0.024 A 
ATOM      4  C   UNL     1      -5.470   4.520   0.906  1.00  0.00     0.036 A 
ATOM      5  C   UNL     1      -4.172   5.008   0.833  1.00  0.00     0.026 A 
ATOM      6  C   UNL     1      -5.696   3.149   0.885  1.00  0.00     0.026 A 
ATOM      7  C   UNL     1      -3.109   4.130   0.746  1.00  0.00     0.008 A 
ATOM      8  C   UNL     1      -4.629   2.277   0.792  1.00  0.00     0.008 A 
BRANCH   4   9
ATOM      9  N   UNL     1      -6.546   5.405   1.000  1.00  0.00    -0.378 N 
ATOM     10  C   UNL     1      -7.920   4.898   0.937  1.00  0.00     0.143 C 
ATOM     11  C   UNL     1      -6.303   6.840   1.162  1.00  0.00     0.143 C 
ENDBRANCH   4   9
ENDBRANCH   2   3
BRANCH   2  12
ATOM     12  N   UNL     1      -1.151   2.379  -0.267  1.00  0.00    -0.362 N 
ATOM     13  C   UNL     1      -0.383   1.368  -0.858  1.00  0.00     0.040 A 
ATOM     14  C   UNL     1      -0.235   3.267   0.481  1.00  0.00     0.122 C 
ATOM     15  C   UNL     1       0.957   1.734  -0.919  1.00  0.00    -0.023 A 
ATOM     16  C   UNL     1      -0.771   0.129  -1.364  1.00  0.00     0.026 A 
ATOM     17  C   UNL     1       1.096   3.106  -0.288  1.00  0.00     0.059 C 
ATOM     18  C   UNL     1       1.888   0.887  -1.480  1.00  0.00     0.006 A 
ATOM     19  C   UNL     1       0.166  -0.716  -1.922  1.00  0.00     0.002 A 
ATOM     20  C   UNL     1       1.495  -0.341  -1.983  1.00  0.00     0.000 A 
ENDBRANCH   2  12
ENDBRANCH   1   2
BRANCH   1  21
ATOM     21  N   UNL     1      -0.383   0.748   1.897  1.00  0.00    -0.336 N 
ATOM     22  C   UNL     1       0.270   0.352   3.008  1.00  0.00     0.315 C 
ATOM     23  H   UNL     1      -0.040   0.461   0.969  1.00  0.00     0.165 HD
ATOM     24  O   UNL     1      -0.134   0.691   4.104  1.00  0.00    -0.249 OA
ATOM     25  N   UNL     1       1.371  -0.419   2.904  1.00  0.00    -0.334 N 
ATOM     26  H   UNL     1       1.713  -0.706   1.976  1.00  0.00     0.165 HD
BRANCH  25  27
ATOM     27  C   UNL     1       2.080  -0.849   4.112  1.00  0.00     0.154 C 
BRANCH  27  28
ATOM     28  C   UNL     1       3.266  -1.694   3.724  1.00  0.00    -0.021 A 
ATOM     29  C   UNL     1       4.452  -1.085   3.281  1.00  0.00    -0.013 A 
ATOM     30  C   UNL     1       3.191  -3.051   3.795  1.00  0.00     0.006 A 
ATOM     31  C   UNL     1       5.559  -1.896   2.925  1.00  0.00    -0.018 A 
ATOM     32  C   UNL     1       4.568   0.313   3.198  1.00  0.00     0.009 A 
ATOM     33  C   UNL     1       4.277  -3.849   3.440  1.00  0.00     0.001 A 
ATOM     34  C   UNL     1       5.444  -3.294   3.012  1.00  0.00     0.009 A 
ATOM     35  C   UNL     1       6.747  -1.287   2.488  1.00  0.00     0.009 A 
ATOM     36  C   UNL     1       5.735   0.868   2.771  1.00  0.00     0.001 A 
ATOM     37  C   UNL     1       6.822   0.070   2.417  1.00  0.00     0.001 A 
ENDBRANCH  27  28
ENDBRANCH  25  27
ENDBRANCH   1  21
TORSDOF 7
