REMARK SMILES C[C@H](Sc1nnc(-c2c[nH]c3ccccc23)n1-c1ccc(Cl)cc1)c1nc(N)nc(N(C)C)n1
REMARK SMILES IDX 1 1 2 2 25 3 34 4 26 5 30 6 27 7 29 8 31 9 32 10 33 11 28 12
REMARK SMILES IDX 3 15 4 16 17 17 5 18 7 19 6 20 18 21 24 22 19 23 23 24 20 25
REMARK SMILES IDX 21 26 22 27 8 28 16 29 9 30 11 31 15 32 10 33 12 34 14 35
REMARK SMILES IDX 13 37
REMARK H PARENT 28 13 28 14 10 36
REMARK Flexibility Score: inf
ROOT
ATOM      1  C   UNL     1      -0.729   1.579   1.267  1.00  0.00     0.028 C 
ATOM      2  C   UNL     1      -0.013   1.086   0.008  1.00  0.00     0.120 C 
ENDROOT
BRANCH   2   3
ATOM      3  C   UNL     1      -0.742   1.585  -1.213  1.00  0.00     0.149 A 
ATOM      4  N   UNL     1      -1.484   0.754  -1.923  1.00  0.00    -0.196 NA
ATOM      5  N   UNL     1      -0.632   2.852  -1.574  1.00  0.00    -0.197 NA
ATOM      6  C   UNL     1      -2.134   1.192  -2.999  1.00  0.00     0.229 A 
ATOM      7  C   UNL     1      -1.274   3.296  -2.652  1.00  0.00     0.225 A 
ATOM      8  N   UNL     1      -2.026   2.465  -3.365  1.00  0.00    -0.177 NA
BRANCH   6   9
ATOM      9  N   UNL     1      -2.913   0.325  -3.736  1.00  0.00    -0.347 N 
ATOM     10  C   UNL     1      -3.623   0.807  -4.924  1.00  0.00     0.146 C 
ATOM     11  C   UNL     1      -3.032  -1.078  -3.332  1.00  0.00     0.146 C 
ENDBRANCH   6   9
BRANCH   7  12
ATOM     12  N   UNL     1      -1.159   4.619  -3.028  1.00  0.00    -0.368 N 
ATOM     13  H   UNL     1      -0.576   5.262  -2.474  1.00  0.00     0.159 HD
ATOM     14  H   UNL     1      -1.655   4.962  -3.862  1.00  0.00     0.159 HD
ENDBRANCH   7  12
ENDBRANCH   2   3
BRANCH   2  15
ATOM     15  S   UNL     1       1.685   1.712  -0.005  1.00  0.00    -0.074 SA
BRANCH  15  16
ATOM     16  C   UNL     1       2.330   0.877   1.406  1.00  0.00     0.196 A 
ATOM     17  N   UNL     1       3.608   0.971   1.893  1.00  0.00    -0.270 N 
ATOM     18  N   UNL     1       1.676   0.052   2.190  1.00  0.00    -0.122 NA
ATOM     19  C   UNL     1       3.644   0.147   2.997  1.00  0.00     0.171 A 
ATOM     20  N   UNL     1       2.447  -0.381   3.121  1.00  0.00    -0.129 NA
BRANCH  17  21
ATOM     21  C   UNL     1       4.657   1.744   1.377  1.00  0.00     0.050 A 
ATOM     22  C   UNL     1       4.569   3.130   1.385  1.00  0.00     0.028 A 
ATOM     23  C   UNL     1       5.789   1.126   0.864  1.00  0.00     0.028 A 
ATOM     24  C   UNL     1       5.605   3.889   0.876  1.00  0.00     0.022 A 
ATOM     25  C   UNL     1       6.820   1.889   0.352  1.00  0.00     0.022 A 
ATOM     26  C   UNL     1       6.730   3.270   0.360  1.00  0.00     0.041 A 
ATOM     27  Cl  UNL     1       8.030   4.227  -0.278  1.00  0.00    -0.084 Cl
ENDBRANCH  17  21
BRANCH  19  28
ATOM     28  C   UNL     1       4.806  -0.096   3.874  1.00  0.00     0.045 A 
ATOM     29  C   UNL     1       4.849  -0.975   5.055  1.00  0.00     0.010 A 
ATOM     30  C   UNL     1       6.046   0.444   3.746  1.00  0.00     0.095 A 
ATOM     31  C   UNL     1       6.157  -0.883   5.559  1.00  0.00     0.046 A 
ATOM     32  C   UNL     1       3.914  -1.793   5.686  1.00  0.00     0.011 A 
ATOM     33  N   UNL     1       6.853  -0.014   4.747  1.00  0.00    -0.360 N 
ATOM     34  C   UNL     1       6.506  -1.615   6.690  1.00  0.00     0.027 A 
ATOM     35  C   UNL     1       4.279  -2.509   6.804  1.00  0.00     0.001 A 
ATOM     36  H   UNL     1       7.840   0.251   4.875  1.00  0.00     0.166 HD
ATOM     37  C   UNL     1       5.570  -2.420   7.303  1.00  0.00     0.002 A 
ENDBRANCH  19  28
ENDBRANCH  15  16
ENDBRANCH   2  15
TORSDOF 7
