REMARK SMILES Cn1c(NC(=O)c2cn(C[C@@H]3CCCC[N@H+]3Cc3cccs3)c3ccccc23)cc(=O)n(C)c1=O
REMARK SMILES IDX 10 1 9 2 7 3 28 4 8 5 23 6 27 7 24 8 26 9 25 10 5 11 4 12
REMARK SMILES IDX 6 14 3 15 1 16 2 17 34 18 32 19 35 20 29 21 30 22 33 23
REMARK SMILES IDX 31 24 11 25 16 26 12 27 15 28 13 30 14 31 17 32 18 33 22 34
REMARK SMILES IDX 19 35 21 36 20 37
REMARK H PARENT 4 13 16 29
REMARK Flexibility Score: inf
ROOT
ATOM      1  C   UNL     1      -0.775   7.237   0.843  1.00  0.00     0.187 C 
ENDROOT
BRANCH   1   2
ATOM      2  N   UNL     1       0.153   6.159   0.492  1.00  0.00    -0.341 N 
ATOM      3  C   UNL     1       2.063   5.060   0.190  1.00  0.00     0.065 A 
ATOM      4  C   UNL     1       0.948   4.179  -0.206  1.00  0.00     0.012 A 
ATOM      5  C   UNL     1       1.501   6.234   0.598  1.00  0.00     0.100 A 
ATOM      6  C   UNL     1      -0.224   4.924   0.005  1.00  0.00     0.049 A 
ATOM      7  C   UNL     1       0.871   2.880  -0.700  1.00  0.00     0.011 A 
ATOM      8  C   UNL     1      -1.457   4.350  -0.283  1.00  0.00     0.027 A 
ATOM      9  C   UNL     1      -0.361   2.328  -0.979  1.00  0.00     0.001 A 
ATOM     10  C   UNL     1      -1.519   3.064  -0.775  1.00  0.00     0.002 A 
BRANCH   3  11
ATOM     11  C   UNL     1       3.494   4.737   0.152  1.00  0.00     0.258 C 
ATOM     12  N   UNL     1       4.402   5.651   0.548  1.00  0.00    -0.308 N 
ATOM     13  H   UNL     1       4.090   6.547   0.948  1.00  0.00     0.171 HD
ATOM     14  O   UNL     1       3.861   3.644  -0.237  1.00  0.00    -0.269 OA
BRANCH  12  15
ATOM     15  C   UNL     1       5.747   5.386   0.419  1.00  0.00     0.122 A 
ATOM     16  C   UNL     1       5.469   3.446   1.898  1.00  0.00     0.157 C 
ATOM     17  N   UNL     1       6.308   4.312   1.066  1.00  0.00    -0.282 N 
ATOM     18  C   UNL     1       7.621   4.049   0.938  1.00  0.00     0.332 A 
ATOM     19  N   UNL     1       8.414   4.832   0.184  1.00  0.00    -0.263 N 
ATOM     20  O   UNL     1       8.099   3.091   1.515  1.00  0.00    -0.247 OA
ATOM     21  C   UNL     1       6.537   6.193  -0.350  1.00  0.00     0.117 A 
ATOM     22  C   UNL     1       7.906   5.899  -0.464  1.00  0.00     0.258 A 
ATOM     23  C   UNL     1       9.841   4.523   0.068  1.00  0.00     0.158 C 
ATOM     24  O   UNL     1       8.631   6.605  -1.144  1.00  0.00    -0.269 OA
ENDBRANCH  12  15
ENDBRANCH   3  11
ENDBRANCH   1   2
BRANCH   1  25
ATOM     25  C   UNL     1      -1.218   7.075   2.298  1.00  0.00     0.204 C 
ATOM     26  N   UNL     1      -2.095   8.193   2.670  1.00  0.00    -0.327 N 
ATOM     27  C   UNL     1      -1.977   5.755   2.456  1.00  0.00     0.067 C 
ATOM     28  C   UNL     1      -2.511   8.097   4.075  1.00  0.00     0.262 C 
ATOM     29  H   UNL     1      -2.942   8.134   2.087  1.00  0.00     0.348 HD
ATOM     30  C   UNL     1      -2.436   5.607   3.909  1.00  0.00     0.012 C 
ATOM     31  C   UNL     1      -3.308   6.808   4.286  1.00  0.00     0.062 C 
BRANCH  26  32
ATOM     32  C   UNL     1      -1.447   9.483   2.399  1.00  0.00     0.310 C 
BRANCH  32  33
ATOM     33  C   UNL     1      -2.433  10.599   2.631  1.00  0.00     0.059 A 
ATOM     34  S   UNL     1      -3.568  11.354   1.480  1.00  0.00    -0.143 S 
ATOM     35  C   UNL     1      -2.691  11.286   3.771  1.00  0.00     0.021 A 
ATOM     36  C   UNL     1      -4.306  12.539   2.593  1.00  0.00     0.065 A 
ATOM     37  C   UNL     1      -3.647  12.284   3.750  1.00  0.00     0.012 A 
ENDBRANCH  32  33
ENDBRANCH  26  32
ENDBRANCH   1  25
TORSDOF 6
