REMARK SMILES O[C@H]1Cc2ccccc2[C@@]1(c1ccccc1)N1CC[NH+]([C@@]2(c3ccccc3)c3ccccc3C[C@@H]2O)CC1
REMARK SMILES IDX 20 1 19 2 18 3 17 4 38 5 37 6 21 8 35 9 28 10 34 11 33 12
REMARK SMILES IDX 29 13 32 14 30 15 31 16 22 17 25 18 26 19 24 20 27 21 23 22
REMARK SMILES IDX 36 23 10 25 2 26 9 27 3 28 4 29 8 30 5 31 7 32 6 33 11 34
REMARK SMILES IDX 16 35 12 36 15 37 13 38 14 39 1 40
REMARK H PARENT 20 7 36 24 1 41
REMARK Flexibility Score: inf
ROOT
ATOM      1  N   UNL     1      -0.883  -4.912   0.611  1.00  0.00    -0.318 N 
ATOM      2  C   UNL     1       0.513  -4.454   0.611  1.00  0.00     0.279 C 
ATOM      3  C   UNL     1       0.546  -2.925   0.668  1.00  0.00     0.147 C 
ATOM      4  N   UNL     1      -0.184  -2.379  -0.485  1.00  0.00    -0.276 NA
ATOM      5  C   UNL     1      -1.581  -2.837  -0.485  1.00  0.00     0.147 C 
ATOM      6  C   UNL     1      -1.613  -4.366  -0.541  1.00  0.00     0.279 C 
ATOM      7  H   UNL     1      -1.333  -4.561   1.468  1.00  0.00     0.349 HD
ENDROOT
BRANCH   1   8
ATOM      8  C   UNL     1      -0.956  -6.379   0.633  1.00  0.00     0.176 C 
ATOM      9  C   UNL     1      -0.139  -6.974  -0.533  1.00  0.00     0.189 C 
ATOM     10  C   UNL     1      -2.379  -6.838   0.394  1.00  0.00     0.023 A 
ATOM     11  C   UNL     1      -0.968  -8.217  -0.919  1.00  0.00     0.075 C 
ATOM     12  C   UNL     1      -2.386  -7.894  -0.498  1.00  0.00    -0.035 A 
ATOM     13  C   UNL     1      -3.573  -6.368   0.915  1.00  0.00     0.011 A 
ATOM     14  C   UNL     1      -3.587  -8.477  -0.866  1.00  0.00     0.004 A 
ATOM     15  C   UNL     1      -4.769  -6.951   0.547  1.00  0.00     0.001 A 
ATOM     16  C   UNL     1      -4.776  -8.008  -0.345  1.00  0.00     0.000 A 
BRANCH   8  17
ATOM     17  C   UNL     1      -0.449  -6.907   1.950  1.00  0.00     0.020 A 
ATOM     18  C   UNL     1       0.482  -7.876   4.367  1.00  0.00     0.000 A 
ATOM     19  C   UNL     1       0.267  -6.520   4.202  1.00  0.00     0.001 A 
ATOM     20  C   UNL     1       0.231  -8.747   3.323  1.00  0.00     0.001 A 
ATOM     21  C   UNL     1      -0.194  -6.035   2.992  1.00  0.00     0.011 A 
ATOM     22  C   UNL     1      -0.234  -8.263   2.115  1.00  0.00     0.011 A 
ENDBRANCH   8  17
BRANCH   9  23
ATOM     23  O   UNL     1       1.169  -7.351  -0.096  1.00  0.00    -0.385 OA
ATOM     24  H   UNL     1       1.084  -8.024   0.625  1.00  0.00     0.211 HD
ENDBRANCH   9  23
ENDBRANCH   1   8
BRANCH   4  25
ATOM     25  C   UNL     1      -0.111  -0.912  -0.507  1.00  0.00     0.099 C 
ATOM     26  C   UNL     1      -0.800  -0.361  -1.773  1.00  0.00     0.148 C 
ATOM     27  C   UNL     1      -0.888  -0.328   0.653  1.00  0.00    -0.017 A 
ATOM     28  C   UNL     1      -2.239  -0.100  -1.280  1.00  0.00     0.070 C 
ATOM     29  C   UNL     1      -2.111   0.139   0.209  1.00  0.00    -0.040 A 
ATOM     30  C   UNL     1      -0.551  -0.213   1.992  1.00  0.00     0.006 A 
ATOM     31  C   UNL     1      -2.994   0.719   1.105  1.00  0.00     0.004 A 
ATOM     32  C   UNL     1      -1.433   0.365   2.883  1.00  0.00     0.000 A 
ATOM     33  C   UNL     1      -2.656   0.832   2.439  1.00  0.00     0.000 A 
BRANCH  25  34
ATOM     34  C   UNL     1       1.326  -0.460  -0.455  1.00  0.00    -0.021 A 
ATOM     35  C   UNL     1       2.320  -1.255  -0.994  1.00  0.00     0.006 A 
ATOM     36  C   UNL     1       1.649   0.749   0.133  1.00  0.00     0.006 A 
ATOM     37  C   UNL     1       3.638  -0.840  -0.947  1.00  0.00     0.000 A 
ATOM     38  C   UNL     1       2.967   1.163   0.181  1.00  0.00     0.000 A 
ATOM     39  C   UNL     1       3.961   0.369  -0.360  1.00  0.00     0.000 A 
ENDBRANCH  25  34
BRANCH  26  40
ATOM     40  O   UNL     1      -0.790  -1.332  -2.821  1.00  0.00    -0.390 OA
ATOM     41  H   UNL     1      -1.267  -2.143  -2.511  1.00  0.00     0.211 HD
ENDBRANCH  26  40
ENDBRANCH   4  25
TORSDOF 6
