REMARK SMILES O=c1c2c3c(sc2ncn1CCN1CCOCC1)C[C@@H]([NH2+]Cc1ccc(F)cc1)CC3
REMARK SMILES IDX 20 1 30 2 31 3 4 4 5 5 6 6 7 7 3 8 2 9 1 10 10 11 9 12 8 13
REMARK SMILES IDX 19 14 21 15 22 18 23 19 24 20 25 21 29 22 26 23 28 24 27 25
REMARK SMILES IDX 11 26 12 27 13 28 14 29 18 30 15 31 17 32 16 33
REMARK H PARENT 21 16 21 17
REMARK Flexibility Score: inf
ROOT
ATOM      1  C   UNL     1       0.119  -4.319   6.216  1.00  0.00     0.188 C 
ATOM      2  C   UNL     1      -1.198  -3.741   5.691  1.00  0.00     0.070 C 
ATOM      3  C   UNL     1      -0.925  -2.827   4.496  1.00  0.00     0.044 C 
ATOM      4  C   UNL     1       0.132  -1.800   4.894  1.00  0.00    -0.018 A 
ATOM      5  C   UNL     1       0.927  -2.009   5.965  1.00  0.00     0.017 A 
ATOM      6  S   UNL     1       1.976  -0.582   6.042  1.00  0.00    -0.120 S 
ATOM      7  C   UNL     1       1.341   0.292   4.634  1.00  0.00     0.131 A 
ATOM      8  C   UNL     1       0.334  -0.557   4.150  1.00  0.00     0.080 A 
ATOM      9  C   UNL     1      -0.370  -0.089   2.992  1.00  0.00     0.262 A 
ATOM     10  O   UNL     1      -1.266  -0.753   2.501  1.00  0.00    -0.269 OA
ATOM     11  N   UNL     1      -0.020   1.094   2.454  1.00  0.00    -0.297 N 
ATOM     12  C   UNL     1       0.972   1.849   2.991  1.00  0.00     0.204 A 
ATOM     13  N   UNL     1       1.627   1.452   4.049  1.00  0.00    -0.227 NA
ATOM     14  C   UNL     1       0.920  -3.192   6.883  1.00  0.00     0.112 C 
ENDROOT
BRANCH   1  15
ATOM     15  N   UNL     1      -0.171  -5.374   7.205  1.00  0.00    -0.340 N 
ATOM     16  H   UNL     1      -1.026  -5.877   6.927  1.00  0.00     0.346 HD
ATOM     17  H   UNL     1      -0.320  -4.943   8.129  1.00  0.00     0.346 HD
BRANCH  15  18
ATOM     18  C   UNL     1       0.953  -6.326   7.283  1.00  0.00     0.297 C 
BRANCH  18  19
ATOM     19  C   UNL     1       0.628  -7.390   8.300  1.00  0.00     0.006 A 
ATOM     20  C   UNL     1       0.990  -7.215   9.623  1.00  0.00     0.012 A 
ATOM     21  C   UNL     1       0.689  -8.187  10.557  1.00  0.00     0.040 A 
ATOM     22  C   UNL     1      -0.025  -8.544   7.908  1.00  0.00     0.012 A 
ATOM     23  C   UNL     1       0.034  -9.343  10.166  1.00  0.00     0.123 A 
ATOM     24  C   UNL     1      -0.322  -9.521   8.840  1.00  0.00     0.040 A 
ATOM     25  F   UNL     1      -0.256 -10.297  11.077  1.00  0.00    -0.207 F 
ENDBRANCH  18  19
ENDBRANCH  15  18
ENDBRANCH   1  15
BRANCH  11  26
ATOM     26  C   UNL     1      -0.729   1.579   1.267  1.00  0.00     0.142 C 
BRANCH  26  27
ATOM     27  C   UNL     1      -0.013   1.086   0.008  1.00  0.00     0.106 C 
BRANCH  27  28
ATOM     28  N   UNL     1      -0.727   1.599  -1.181  1.00  0.00    -0.297 NA
ATOM     29  C   UNL     1      -2.057   0.963  -1.285  1.00  0.00     0.113 C 
ATOM     30  C   UNL     1       0.059   1.323  -2.401  1.00  0.00     0.113 C 
ATOM     31  C   UNL     1      -2.784   1.541  -2.502  1.00  0.00     0.175 C 
ATOM     32  C   UNL     1      -0.689   1.897  -3.608  1.00  0.00     0.175 C 
ATOM     33  O   UNL     1      -1.994   1.317  -3.674  1.00  0.00    -0.379 OA
ENDBRANCH  27  28
ENDBRANCH  26  27
ENDBRANCH  11  26
TORSDOF 6
