REMARK SMILES Cc1ccc(NC(=O)C[C@@H]2S/C(=N\c3cc(C)ccc3C)N([C@H](C)c3ccncc3)C2=O)c(C)c1
REMARK SMILES IDX 10 1 31 2 32 3 22 4 12 5 13 6 11 7 9 8 7 9 6 10 8 12 5 13
REMARK SMILES IDX 1 14 2 15 35 16 3 17 33 18 4 19 34 20 23 21 24 22 25 23
REMARK SMILES IDX 30 24 26 25 29 26 27 27 28 28 14 29 20 30 15 31 19 32 21 33
REMARK SMILES IDX 16 34 18 35 17 36
REMARK H PARENT 6 11
REMARK Flexibility Score: inf
ROOT
ATOM      1  C   UNL     1       4.643  -5.001   0.032  1.00  0.00     0.154 C 
ATOM      2  C   UNL     1       4.308  -6.441  -0.322  1.00  0.00     0.243 C 
ATOM      3  O   UNL     1       3.824  -7.207   0.483  1.00  0.00    -0.273 OA
ATOM      4  N   UNL     1       4.579  -6.806  -1.564  1.00  0.00    -0.283 N 
ATOM      5  C   UNL     1       5.129  -5.939  -2.484  1.00  0.00     0.172 C 
ATOM      6  N   UNL     1       5.441  -6.178  -3.736  1.00  0.00    -0.224 NA
ATOM      7  S   UNL     1       5.318  -4.414  -1.571  1.00  0.00    -0.074 SA
ENDROOT
BRANCH   1   8
ATOM      8  C   UNL     1       3.386  -4.221   0.423  1.00  0.00     0.125 C 
BRANCH   8   9
ATOM      9  C   UNL     1       3.766  -2.811   0.794  1.00  0.00     0.226 C 
ATOM     10  N   UNL     1       2.815  -1.934   1.175  1.00  0.00    -0.326 N 
ATOM     11  H   UNL     1       1.839  -2.247   1.280  1.00  0.00     0.169 HD
ATOM     12  O   UNL     1       4.927  -2.464   0.750  1.00  0.00    -0.275 OA
BRANCH  10  13
ATOM     13  C   UNL     1       3.154  -0.601   1.428  1.00  0.00     0.044 A 
ATOM     14  C   UNL     1       4.186   3.474   2.198  1.00  0.00     0.044 C 
ATOM     15  C   UNL     1       3.822   2.038   1.927  1.00  0.00    -0.051 A 
ATOM     16  C   UNL     1       2.649   1.515   2.438  1.00  0.00     0.009 A 
ATOM     17  C   UNL     1       4.663   1.244   1.167  1.00  0.00     0.005 A 
ATOM     18  C   UNL     1       2.312   0.198   2.190  1.00  0.00    -0.027 A 
ATOM     19  C   UNL     1       4.332  -0.072   0.916  1.00  0.00     0.026 A 
ATOM     20  C   UNL     1       1.032  -0.370   2.747  1.00  0.00     0.046 C 
ENDBRANCH  10  13
ENDBRANCH   8   9
ENDBRANCH   1   8
BRANCH   4  21
ATOM     21  C   UNL     1       4.283  -8.180  -1.976  1.00  0.00     0.120 C 
ATOM     22  C   UNL     1       5.584  -8.890  -2.357  1.00  0.00     0.037 C 
BRANCH  21  23
ATOM     23  C   UNL     1       3.356  -8.159  -3.165  1.00  0.00    -0.022 A 
ATOM     24  C   UNL     1       3.507  -9.071  -4.199  1.00  0.00     0.026 A 
ATOM     25  C   UNL     1       2.329  -7.232  -3.247  1.00  0.00     0.026 A 
ATOM     26  C   UNL     1       2.638  -9.022  -5.272  1.00  0.00     0.111 A 
ATOM     27  C   UNL     1       1.502  -7.240  -4.355  1.00  0.00     0.111 A 
ATOM     28  N   UNL     1       1.675  -8.122  -5.320  1.00  0.00    -0.265 NA
ENDBRANCH  21  23
ENDBRANCH   4  21
BRANCH   6  29
ATOM     29  C   UNL     1       5.927  -5.170  -4.525  1.00  0.00     0.069 A 
ATOM     30  C   UNL     1       7.071  -5.374  -5.300  1.00  0.00    -0.025 A 
ATOM     31  C   UNL     1       5.284  -3.931  -4.555  1.00  0.00     0.032 A 
ATOM     32  C   UNL     1       7.551  -4.356  -6.097  1.00  0.00     0.006 A 
ATOM     33  C   UNL     1       7.775  -6.706  -5.269  1.00  0.00     0.046 C 
ATOM     34  C   UNL     1       5.779  -2.919  -5.352  1.00  0.00    -0.049 A 
ATOM     35  C   UNL     1       6.910  -3.131  -6.121  1.00  0.00     0.004 A 
ATOM     36  C   UNL     1       5.087  -1.581  -5.384  1.00  0.00     0.044 C 
ENDBRANCH   6  29
TORSDOF 6
