REMARK SMILES CCCCn1c(N)c(N(CC(C)C)C(=O)[C@H](C)[NH2+]C(c2ccccc2)c2ccccc2)c(=O)[nH]c1=O
REMARK SMILES IDX 14 1 15 2 9 3 8 4 5 5 35 6 6 7 34 8 36 9 32 10 33 12 4 13
REMARK SMILES IDX 3 14 2 15 1 16 7 17 10 20 11 21 12 22 13 23 16 24 17 25
REMARK SMILES IDX 18 26 19 29 20 30 25 31 21 32 24 33 22 34 23 35 26 36 31 37
REMARK SMILES IDX 27 38 30 39 28 40 29 41
REMARK H PARENT 34 11 7 18 7 19 18 27 18 28
REMARK Flexibility Score: inf
ROOT
ATOM      1  C   UNL     1       6.240  -0.983   3.156  1.00  0.00     0.285 C 
ATOM      2  O   UNL     1       5.919  -1.421   2.071  1.00  0.00    -0.268 OA
ENDROOT
BRANCH   1   3
ATOM      3  N   UNL     1       7.400  -1.374   3.724  1.00  0.00    -0.299 N 
BRANCH   3   4
ATOM      4  C   UNL     1       7.749  -0.906   5.009  1.00  0.00     0.151 A 
ATOM      5  N   UNL     1       8.137  -1.286   7.323  1.00  0.00    -0.278 N 
ATOM      6  C   UNL     1       8.426   0.017   7.488  1.00  0.00     0.330 A 
ATOM      7  C   UNL     1       7.793  -1.772   6.083  1.00  0.00     0.137 A 
ATOM      8  N   UNL     1       8.389   0.875   6.453  1.00  0.00    -0.272 N 
ATOM      9  O   UNL     1       8.728   0.427   8.592  1.00  0.00    -0.248 OA
ATOM     10  C   UNL     1       8.063   0.450   5.217  1.00  0.00     0.279 A 
ATOM     11  H   UNL     1       8.611   1.869   6.607  1.00  0.00     0.175 HD
ATOM     12  O   UNL     1       8.037   1.236   4.284  1.00  0.00    -0.267 OA
BRANCH   5  13
ATOM     13  C   UNL     1       8.188  -2.194   8.472  1.00  0.00     0.129 C 
BRANCH  13  14
ATOM     14  C   UNL     1       9.595  -2.783   8.594  1.00  0.00     0.022 C 
BRANCH  14  15
ATOM     15  C   UNL     1       9.648  -3.732   9.793  1.00  0.00    -0.002 C 
ATOM     16  C   UNL     1      11.055  -4.321   9.915  1.00  0.00     0.004 C 
ENDBRANCH  14  15
ENDBRANCH  13  14
ENDBRANCH   5  13
BRANCH   7  17
ATOM     17  N   UNL     1       7.497  -3.103   5.915  1.00  0.00    -0.383 N 
ATOM     18  H   UNL     1       7.532  -3.740   6.724  1.00  0.00     0.158 HD
ATOM     19  H   UNL     1       7.239  -3.464   4.985  1.00  0.00     0.158 HD
ENDBRANCH   7  17
ENDBRANCH   3   4
BRANCH   3  20
ATOM     20  C   UNL     1       8.297  -2.283   3.008  1.00  0.00     0.129 C 
BRANCH  20  21
ATOM     21  C   UNL     1       9.367  -1.471   2.274  1.00  0.00     0.003 C 
ATOM     22  C   UNL     1      10.370  -2.423   1.620  1.00  0.00     0.009 C 
ATOM     23  C   UNL     1       8.704  -0.611   1.196  1.00  0.00     0.009 C 
ENDBRANCH  20  21
ENDBRANCH   3  20
ENDBRANCH   1   3
BRANCH   1  24
ATOM     24  C   UNL     1       5.345  -0.003   3.869  1.00  0.00     0.270 C 
ATOM     25  C   UNL     1       4.632  -0.709   5.023  1.00  0.00     0.086 C 
BRANCH  24  26
ATOM     26  N   UNL     1       4.348   0.524   2.926  1.00  0.00    -0.326 N 
ATOM     27  H   UNL     1       3.552  -0.127   2.874  1.00  0.00     0.347 HD
ATOM     28  H   UNL     1       4.773   0.604   1.992  1.00  0.00     0.347 HD
BRANCH  26  29
ATOM     29  C   UNL     1       3.866   1.844   3.354  1.00  0.00     0.245 C 
BRANCH  29  30
ATOM     30  C   UNL     1       3.366   2.608   2.155  1.00  0.00     0.014 A 
ATOM     31  C   UNL     1       2.644   1.957   1.172  1.00  0.00     0.010 A 
ATOM     32  C   UNL     1       3.629   3.960   2.038  1.00  0.00     0.010 A 
ATOM     33  C   UNL     1       2.185   2.658   0.073  1.00  0.00     0.001 A 
ATOM     34  C   UNL     1       3.169   4.661   0.938  1.00  0.00     0.001 A 
ATOM     35  C   UNL     1       2.447   4.010  -0.044  1.00  0.00     0.000 A 
ENDBRANCH  29  30
BRANCH  29  36
ATOM     36  C   UNL     1       2.744   1.673   4.345  1.00  0.00     0.014 A 
ATOM     37  C   UNL     1       2.661   2.505   5.446  1.00  0.00     0.010 A 
ATOM     38  C   UNL     1       1.794   0.688   4.150  1.00  0.00     0.010 A 
ATOM     39  C   UNL     1       1.632   2.348   6.354  1.00  0.00     0.001 A 
ATOM     40  C   UNL     1       0.768   0.527   5.062  1.00  0.00     0.001 A 
ATOM     41  C   UNL     1       0.685   1.359   6.163  1.00  0.00     0.000 A 
ENDBRANCH  29  36
ENDBRANCH  26  29
ENDBRANCH  24  26
ENDBRANCH   1  24
TORSDOF 13
