REMARK SMILES COC(=O)c1ccccc1NC(=S)N(CCC[NH+](C)C)Cc1cc2cc3c(cc2[nH]c1=O)OCO3
REMARK SMILES IDX 12 1 13 2 14 3 15 4 16 5 17 6 18 7 19 8 20 9 21 11 22 12
REMARK SMILES IDX 31 13 23 14 30 15 32 16 24 17 29 18 25 20 28 21 26 22 27 23
REMARK SMILES IDX 35 24 33 25 34 26 11 27 10 29 5 30 9 31 6 32 8 33 7 34 3 35
REMARK SMILES IDX 4 36 2 37 1 38
REMARK H PARENT 18 10 30 19 11 28
REMARK Flexibility Score: inf
ROOT
ATOM      1  C   UNL     1      -0.243   0.145  -0.476  1.00  0.00     0.173 C 
ATOM      2  S   UNL     1       1.109  -0.552  -1.263  1.00  0.00    -0.041 S 
ENDROOT
BRANCH   1   3
ATOM      3  N   UNL     1      -0.294   1.477  -0.279  1.00  0.00    -0.344 N 
BRANCH   3   4
ATOM      4  C   UNL     1      -1.499   2.087   0.291  1.00  0.00     0.125 C 
BRANCH   4   5
ATOM      5  C   UNL     1      -1.380   2.123   1.815  1.00  0.00     0.083 C 
BRANCH   5   6
ATOM      6  C   UNL     1      -2.638   2.760   2.410  1.00  0.00     0.263 C 
BRANCH   6   7
ATOM      7  N   UNL     1      -2.517   2.769   3.883  1.00  0.00    -0.340 N 
ATOM      8  C   UNL     1      -1.443   3.696   4.297  1.00  0.00     0.332 C 
ATOM      9  C   UNL     1      -3.800   3.178   4.492  1.00  0.00     0.332 C 
ATOM     10  H   UNL     1      -2.282   1.819   4.205  1.00  0.00     0.347 HD
ENDBRANCH   6   7
ENDBRANCH   5   6
ENDBRANCH   4   5
ENDBRANCH   3   4
BRANCH   3  11
ATOM     11  C   UNL     1       0.851   2.316  -0.639  1.00  0.00     0.160 C 
BRANCH  11  12
ATOM     12  C   UNL     1       1.804   2.392   0.527  1.00  0.00     0.037 A 
ATOM     13  C   UNL     1       1.593   3.343   1.545  1.00  0.00     0.253 A 
ATOM     14  C   UNL     1       2.866   1.548   0.588  1.00  0.00     0.021 A 
ATOM     15  N   UNL     1       2.417   3.438   2.603  1.00  0.00    -0.322 N 
ATOM     16  O   UNL     1       0.636   4.094   1.468  1.00  0.00    -0.269 OA
ATOM     17  C   UNL     1       3.773   1.648   1.731  1.00  0.00     0.003 A 
ATOM     18  C   UNL     1       3.514   2.611   2.725  1.00  0.00     0.052 A 
ATOM     19  H   UNL     1       2.226   4.140   3.333  1.00  0.00     0.170 HD
ATOM     20  C   UNL     1       4.885   0.804   1.845  1.00  0.00     0.061 A 
ATOM     21  C   UNL     1       4.367   2.716   3.817  1.00  0.00     0.077 A 
ATOM     22  C   UNL     1       5.722   0.922   2.933  1.00  0.00     0.166 A 
ATOM     23  C   UNL     1       5.464   1.880   3.922  1.00  0.00     0.167 A 
ATOM     24  O   UNL     1       6.853   0.237   3.278  1.00  0.00    -0.454 OA
ATOM     25  O   UNL     1       6.433   1.787   4.877  1.00  0.00    -0.454 OA
ATOM     26  C   UNL     1       7.510   1.053   4.265  1.00  0.00     0.468 C 
ENDBRANCH  11  12
ENDBRANCH   3  11
ENDBRANCH   1   3
BRANCH   1  27
ATOM     27  N   UNL     1      -1.255  -0.639  -0.054  1.00  0.00    -0.332 N 
ATOM     28  H   UNL     1      -2.099  -0.214   0.356  1.00  0.00     0.169 HD
BRANCH  27  29
ATOM     29  C   UNL     1      -1.159  -2.022  -0.172  1.00  0.00     0.055 A 
ATOM     30  C   UNL     1      -2.276  -2.775  -0.569  1.00  0.00     0.083 A 
ATOM     31  C   UNL     1       0.042  -2.665   0.096  1.00  0.00     0.027 A 
ATOM     32  C   UNL     1      -2.166  -4.163  -0.684  1.00  0.00     0.018 A 
ATOM     33  C   UNL     1       0.133  -4.037  -0.018  1.00  0.00     0.002 A 
ATOM     34  C   UNL     1      -0.967  -4.783  -0.409  1.00  0.00     0.001 A 
BRANCH  30  35
ATOM     35  C   UNL     1      -3.555  -2.105  -0.862  1.00  0.00     0.339 C 
ATOM     36  O   UNL     1      -3.620  -0.892  -0.862  1.00  0.00    -0.246 OA
BRANCH  35  37
ATOM     37  O   UNL     1      -4.653  -2.838  -1.131  1.00  0.00    -0.465 OA
ATOM     38  C   UNL     1      -5.879  -2.111  -1.411  1.00  0.00     0.282 C 
ENDBRANCH  35  37
ENDBRANCH  30  35
ENDBRANCH  27  29
ENDBRANCH   1  27
TORSDOF 11
