REMARK SMILES O=C(CSc1nc2cc(C(F)(F)F)ccc2n1Cc1ccccc1)c1ccc(O)cc1O
REMARK SMILES IDX 3 1 4 2 5 3 17 4 16 5 6 6 7 7 15 8 8 9 14 10 9 11 18 12
REMARK SMILES IDX 19 13 22 14 23 15 21 16 24 17 20 18 10 19 11 20 12 21 13 22
REMARK SMILES IDX 2 23 1 24 25 25 31 26 26 27 30 28 27 29 28 30 32 31 29 33
REMARK H PARENT 32 32 29 34
REMARK Flexibility Score: inf
ROOT
ATOM      1  C   UNL     1       0.269  -4.855  -0.026  1.00  0.00     0.159 C 
ENDROOT
BRANCH   1   2
ATOM      2  S   UNL     1      -1.167  -3.754  -0.006  1.00  0.00    -0.080 SA
BRANCH   2   3
ATOM      3  C   UNL     1      -0.354  -2.191  -0.006  1.00  0.00     0.169 A 
ATOM      4  N   UNL     1      -0.983  -0.978   0.006  1.00  0.00    -0.314 N 
ATOM      5  C   UNL     1       0.002  -0.004   0.002  1.00  0.00     0.069 A 
ATOM      6  N   UNL     1       0.945  -2.018  -0.018  1.00  0.00    -0.222 NA
ATOM      7  C   UNL     1       1.228  -0.689  -0.013  1.00  0.00     0.090 A 
ATOM      8  C   UNL     1      -0.017   1.382   0.010  1.00  0.00     0.029 A 
ATOM      9  C   UNL     1       2.422   0.038  -0.021  1.00  0.00     0.043 A 
ATOM     10  C   UNL     1       1.170   2.085   0.002  1.00  0.00     0.015 A 
ATOM     11  C   UNL     1       2.384   1.414  -0.014  1.00  0.00     0.058 A 
BRANCH   4  12
ATOM     12  C   UNL     1      -2.430  -0.750   0.022  1.00  0.00     0.160 C 
BRANCH  12  13
ATOM     13  C   UNL     1      -2.941  -0.664  -1.394  1.00  0.00    -0.028 A 
ATOM     14  C   UNL     1      -3.877  -0.505  -3.990  1.00  0.00     0.000 A 
ATOM     15  C   UNL     1      -3.457   0.638  -3.336  1.00  0.00     0.000 A 
ATOM     16  C   UNL     1      -3.829  -1.728  -3.346  1.00  0.00     0.000 A 
ATOM     17  C   UNL     1      -2.993   0.559  -2.036  1.00  0.00     0.005 A 
ATOM     18  C   UNL     1      -3.361  -1.807  -2.048  1.00  0.00     0.005 A 
ENDBRANCH  12  13
ENDBRANCH   4  12
BRANCH  11  19
ATOM     19  C   UNL     1       3.672   2.198  -0.023  1.00  0.00     0.416 C 
ATOM     20  F   UNL     1       4.057   2.447  -1.345  1.00  0.00    -0.166 F 
ATOM     21  F   UNL     1       3.483   3.412   0.645  1.00  0.00    -0.166 F 
ATOM     22  F   UNL     1       4.670   1.461   0.623  1.00  0.00    -0.166 F 
ENDBRANCH  11  19
ENDBRANCH   2   3
ENDBRANCH   1   2
BRANCH   1  23
ATOM     23  C   UNL     1      -0.198  -6.288  -0.028  1.00  0.00     0.176 C 
ATOM     24  O   UNL     1      -1.385  -6.540  -0.018  1.00  0.00    -0.293 OA
BRANCH  23  25
ATOM     25  C   UNL     1       0.782  -7.377  -0.043  1.00  0.00     0.060 A 
ATOM     26  C   UNL     1       0.351  -8.716  -0.040  1.00  0.00     0.130 A 
ATOM     27  C   UNL     1       2.154  -7.090  -0.055  1.00  0.00     0.019 A 
ATOM     28  C   UNL     1       1.286  -9.736  -0.058  1.00  0.00     0.093 A 
ATOM     29  C   UNL     1       3.064  -8.106  -0.068  1.00  0.00     0.047 A 
ATOM     30  C   UNL     1       2.640  -9.433  -0.070  1.00  0.00     0.119 A 
BRANCH  26  31
ATOM     31  O   UNL     1      -0.974  -9.006  -0.022  1.00  0.00    -0.507 OA
ATOM     32  H   UNL     1      -1.345  -8.539  -0.812  1.00  0.00     0.293 HD
ENDBRANCH  26  31
BRANCH  30  33
ATOM     33  O   UNL     1       3.556 -10.434  -0.082  1.00  0.00    -0.508 OA
ATOM     34  H   UNL     1       4.127 -10.269   0.709  1.00  0.00     0.293 HD
ENDBRANCH  30  33
ENDBRANCH  23  25
ENDBRANCH   1  23
TORSDOF 9
