REMARK SMILES CC(=O)O[C@H]1C[C@@]2(C)[C@@H](C[C@@H](O)[C@H]3[C@@]4(C)CC[C@@H](O)[C@@H](C)C4=CC[C@@]32C)/C1=C(/CCC=C(C)C)C(=O)[O-]
REMARK SMILES IDX 21 1 20 2 18 3 17 4 16 5 14 6 22 7 23 8 24 9 25 10 13 11
REMARK SMILES IDX 11 12 10 13 9 14 7 15 6 16 5 17 27 18 28 19 8 20 26 21 15 22
REMARK SMILES IDX 19 23 12 25 4 27 2 28 3 29 1 30 29 31 30 32 31 33 32 34
REMARK SMILES IDX 33 35 34 36 35 37 36 38 37 39
REMARK H PARENT 19 24 12 26
REMARK Flexibility Score: inf
ROOT
ATOM      1  C   UNL     1      -0.725   8.284   0.410  1.00  0.00     0.015 C 
ATOM      2  C   UNL     1      -1.237   7.351  -0.689  1.00  0.00     0.041 C 
ATOM      3  C   UNL     1      -2.739   7.579  -0.913  1.00  0.00     0.121 C 
ATOM      4  C   UNL     1      -3.537   6.767   0.104  1.00  0.00     0.033 C 
ATOM      5  C   UNL     1      -3.460   5.272  -0.202  1.00  0.00     0.014 C 
ATOM      6  C   UNL     1      -2.156   4.916  -0.762  1.00  0.00    -0.005 C 
ATOM      7  C   UNL     1      -1.071   5.902  -0.258  1.00  0.00    -0.062 C 
ATOM      8  C   UNL     1      -0.097   5.573   0.529  1.00  0.00    -0.026 C 
ATOM      9  C   UNL     1       0.128   4.178   1.032  1.00  0.00     0.035 C 
ATOM     10  C   UNL     1      -1.182   3.384   0.957  1.00  0.00    -0.017 C 
ATOM     11  C   UNL     1      -1.756   3.475  -0.470  1.00  0.00     0.035 C 
ATOM     12  C   UNL     1      -2.966   2.567  -0.673  1.00  0.00     0.119 C 
ATOM     13  C   UNL     1      -2.669   1.116  -0.268  1.00  0.00     0.041 C 
ATOM     14  C   UNL     1      -2.232   1.140   1.184  1.00  0.00     0.028 C 
ATOM     15  C   UNL     1      -0.891   1.920   1.241  1.00  0.00    -0.016 C 
ATOM     16  C   UNL     1      -0.423   1.604   2.667  1.00  0.00     0.058 C 
ATOM     17  C   UNL     1      -0.785   0.101   2.815  1.00  0.00     0.204 C 
ATOM     18  C   UNL     1      -1.898  -0.181   1.811  1.00  0.00    -0.021 C 
ATOM     19  C   UNL     1      -2.458  -1.359   1.546  1.00  0.00    -0.022 C 
ATOM     20  C   UNL     1       0.099   1.363   0.216  1.00  0.00     0.013 C 
ATOM     21  C   UNL     1      -2.212   3.929   1.948  1.00  0.00     0.013 C 
ATOM     22  C   UNL     1      -2.263   5.085  -2.278  1.00  0.00     0.016 C 
ENDROOT
BRANCH   3  23
ATOM     23  O   UNL     1      -3.038   8.968  -0.754  1.00  0.00    -0.393 OA
ATOM     24  H   UNL     1      -2.522   9.495  -1.414  1.00  0.00     0.210 HD
ENDBRANCH   3  23
BRANCH  12  25
ATOM     25  O   UNL     1      -4.052   3.057   0.115  1.00  0.00    -0.393 OA
ATOM     26  H   UNL     1      -4.281   3.978  -0.167  1.00  0.00     0.210 HD
ENDBRANCH  12  25
BRANCH  17  27
ATOM     27  O   UNL     1       0.374  -0.721   2.516  1.00  0.00    -0.458 OA
BRANCH  27  28
ATOM     28  C   UNL     1       1.238  -0.945   3.519  1.00  0.00     0.303 C 
ATOM     29  O   UNL     1       0.989  -0.544   4.632  1.00  0.00    -0.253 OA
ATOM     30  C   UNL     1       2.518  -1.697   3.259  1.00  0.00     0.139 C 
ENDBRANCH  27  28
ENDBRANCH  17  27
BRANCH  19  31
ATOM     31  C   UNL     1      -1.946  -2.606   2.219  1.00  0.00     0.041 C 
BRANCH  31  32
ATOM     32  C   UNL     1      -2.783  -2.891   3.468  1.00  0.00     0.032 C 
BRANCH  32  33
ATOM     33  C   UNL     1      -2.271  -4.138   4.142  1.00  0.00    -0.028 C 
ATOM     34  C   UNL     1      -1.903  -4.100   5.398  1.00  0.00    -0.080 C 
ATOM     35  C   UNL     1      -2.099  -2.841   6.203  1.00  0.00     0.039 C 
ATOM     36  C   UNL     1      -1.282  -5.314   6.039  1.00  0.00     0.039 C 
ENDBRANCH  32  33
ENDBRANCH  31  32
ENDBRANCH  19  31
BRANCH  19  37
ATOM     37  C   UNL     1      -3.576  -1.443   0.596  1.00  0.00     0.068 C 
ATOM     38  O   UNL     1      -3.382  -1.838  -0.537  1.00  0.00    -0.545 OA
ATOM     39  O   UNL     1      -4.816  -1.082   0.981  1.00  0.00    -0.545 OA
ENDBRANCH  19  37
TORSDOF 8
