REMARK SMILES COC(=O)C[C@@H]1Cc2c(O)c3c(c(O)c2[C@@H](C)O1)C(=O)c1c(cnn1C)C3=O
REMARK SMILES IDX 5 1 6 2 17 3 16 4 18 5 15 6 13 7 8 8 7 9 12 10 9 11 11 12
REMARK SMILES IDX 19 13 27 14 20 15 21 16 22 17 28 18 25 19 23 20 24 21 26 22
REMARK SMILES IDX 14 23 10 25 3 27 4 28 2 29 1 30
REMARK H PARENT 14 24 10 26
REMARK Flexibility Score: inf
ROOT
ATOM      1  C   UNL     1       7.416   4.054  -0.184  1.00  0.00     0.155 C 
ENDROOT
BRANCH   1   2
ATOM      2  C   UNL     1       6.097   3.325  -0.446  1.00  0.00     0.134 C 
ATOM      3  C   UNL     1       5.208   0.709  -1.456  1.00  0.00     0.044 C 
ATOM      4  C   UNL     1       4.972   1.260  -0.048  1.00  0.00     0.149 C 
ATOM      5  O   UNL     1       6.058   2.111   0.314  1.00  0.00    -0.369 OA
ATOM      6  C   UNL     1       3.674   2.026  -0.023  1.00  0.00     0.030 A 
ATOM      7  C   UNL     1       2.476   1.302  -0.017  1.00  0.00     0.133 A 
ATOM      8  C   UNL     1       3.651   3.399  -0.011  1.00  0.00     0.007 A 
ATOM      9  C   UNL     1       4.925   4.206  -0.009  1.00  0.00     0.072 C 
ATOM     10  C   UNL     1       1.252   1.969   0.001  1.00  0.00     0.081 A 
ATOM     11  C   UNL     1       2.431   4.084   0.004  1.00  0.00     0.131 A 
ATOM     12  C   UNL     1       1.230   3.378   0.010  1.00  0.00     0.080 A 
ATOM     13  C   UNL     1      -0.014   1.212   0.009  1.00  0.00     0.216 C 
ATOM     14  C   UNL     1      -0.061   4.092   0.026  1.00  0.00     0.201 C 
ATOM     15  O   UNL     1       0.002  -0.004   0.002  1.00  0.00    -0.287 OA
ATOM     16  C   UNL     1      -1.296   1.932   0.019  1.00  0.00     0.120 A 
ATOM     17  C   UNL     1      -1.317   3.326   0.034  1.00  0.00     0.072 A 
ATOM     18  O   UNL     1      -0.086   5.308   0.034  1.00  0.00    -0.288 OA
ATOM     19  N   UNL     1      -2.594   1.535   0.037  1.00  0.00    -0.264 N 
ATOM     20  C   UNL     1      -2.678   3.675   0.050  1.00  0.00     0.148 A 
ATOM     21  N   UNL     1      -3.367   2.562   0.051  1.00  0.00    -0.180 NA
ATOM     22  C   UNL     1      -3.046   0.141   0.035  1.00  0.00     0.174 C 
BRANCH   7  23
ATOM     23  O   UNL     1       2.506  -0.054  -0.028  1.00  0.00    -0.507 OA
ATOM     24  H   UNL     1       3.049  -0.304   0.760  1.00  0.00     0.293 HD
ENDBRANCH   7  23
BRANCH  11  25
ATOM     25  O   UNL     1       2.417   5.440   0.013  1.00  0.00    -0.507 OA
ATOM     26  H   UNL     1       2.938   5.706  -0.786  1.00  0.00     0.293 HD
ENDBRANCH  11  25
ENDBRANCH   1   2
BRANCH   1  27
ATOM     27  C   UNL     1       8.561   3.224  -0.705  1.00  0.00     0.308 C 
ATOM     28  O   UNL     1       8.344   2.158  -1.231  1.00  0.00    -0.252 OA
BRANCH  27  29
ATOM     29  O   UNL     1       9.822   3.668  -0.584  1.00  0.00    -0.469 OA
ATOM     30  C   UNL     1      10.874   2.816  -1.108  1.00  0.00     0.282 C 
ENDBRANCH  27  29
ENDBRANCH   1  27
TORSDOF 5
