REMARK SMILES N#C/C(C(=O)[N-]Cc1ccccc1)=C1/N=C(NC(=O)c2ccc(Cl)cc2Cl)c2ccccc21
REMARK SMILES IDX 4 1 5 2 6 3 7 4 8 5 11 6 12 7 10 8 13 9 9 10 3 11 14 12
REMARK SMILES IDX 15 13 33 14 16 15 28 16 32 17 17 18 29 19 31 20 18 21 30 23
REMARK SMILES IDX 19 24 2 25 1 26 20 27 26 28 21 29 25 30 27 31 22 32 23 33
REMARK SMILES IDX 24 34
REMARK H PARENT 17 22
REMARK Flexibility Score: inf
ROOT
ATOM      1  C   UNL     1       2.046   5.799   0.013  1.00  0.00     0.095 C 
ATOM      2  O   UNL     1       0.852   5.565   0.022  1.00  0.00    -0.314 OA
ENDROOT
BRANCH   1   3
ATOM      3  N   UNL     1       2.483   7.074   0.015  1.00  0.00    -0.645 NA
BRANCH   3   4
ATOM      4  C   UNL     1       1.520   8.178   0.030  1.00  0.00    -0.081 C 
BRANCH   4   5
ATOM      5  C   UNL     1       2.260   9.491   0.030  1.00  0.00    -0.066 A 
ATOM      6  C   UNL     1       3.619  11.899   0.031  1.00  0.00     0.000 A 
ATOM      7  C   UNL     1       3.290  11.290   1.228  1.00  0.00     0.000 A 
ATOM      8  C   UNL     1       3.268  11.303  -1.166  1.00  0.00     0.000 A 
ATOM      9  C   UNL     1       2.606  10.089   1.228  1.00  0.00     0.002 A 
ATOM     10  C   UNL     1       2.589  10.099  -1.167  1.00  0.00     0.002 A 
ENDBRANCH   4   5
ENDBRANCH   3   4
ENDBRANCH   1   3
BRANCH   1  11
ATOM     11  C   UNL     1       3.013   4.690  -0.002  1.00  0.00     0.103 C 
ATOM     12  C   UNL     1       2.562   3.373  -0.005  1.00  0.00     0.093 C 
ATOM     13  N   UNL     1       1.276   2.981   0.000  1.00  0.00    -0.228 NA
ATOM     14  C   UNL     1       3.416   2.164  -0.019  1.00  0.00     0.013 A 
ATOM     15  C   UNL     1       1.169   1.669  -0.000  1.00  0.00     0.141 C 
ATOM     16  C   UNL     1       2.520   1.074  -0.016  1.00  0.00     0.027 A 
ATOM     17  C   UNL     1       4.780   1.935  -0.034  1.00  0.00     0.011 A 
ATOM     18  N   UNL     1      -0.011   0.966   0.007  1.00  0.00    -0.306 N 
ATOM     19  C   UNL     1       3.012  -0.221  -0.028  1.00  0.00     0.012 A 
ATOM     20  C   UNL     1       5.259   0.632  -0.045  1.00  0.00     0.001 A 
ATOM     21  C   UNL     1      -1.187   1.624   0.017  1.00  0.00     0.258 C 
ATOM     22  H   UNL     1       0.003  -0.064   0.006  1.00  0.00     0.171 HD
ATOM     23  C   UNL     1       4.383  -0.436  -0.042  1.00  0.00     0.001 A 
ATOM     24  O   UNL     1      -1.204   2.839   0.023  1.00  0.00    -0.269 OA
BRANCH  11  25
ATOM     25  C   UNL     1       4.418   4.965  -0.014  1.00  0.00     0.104 C 
ATOM     26  N   UNL     1       5.533   5.184  -0.023  1.00  0.00    -0.192 NA
ENDBRANCH  11  25
BRANCH  21  27
ATOM     27  C   UNL     1      -2.456   0.868   0.018  1.00  0.00     0.058 A 
ATOM     28  C   UNL     1      -3.677   1.548   0.028  1.00  0.00     0.055 A 
ATOM     29  C   UNL     1      -2.440  -0.529   0.005  1.00  0.00     0.017 A 
ATOM     30  C   UNL     1      -4.860   0.834   0.029  1.00  0.00     0.041 A 
ATOM     31  Cl  UNL     1      -3.708   3.283   0.037  1.00  0.00    -0.083 Cl
ATOM     32  C   UNL     1      -3.628  -1.228   0.012  1.00  0.00     0.021 A 
ATOM     33  C   UNL     1      -4.836  -0.550   0.021  1.00  0.00     0.042 A 
ATOM     34  Cl  UNL     1      -6.327  -1.439   0.023  1.00  0.00    -0.084 Cl
ENDBRANCH  21  27
ENDBRANCH   1  11
TORSDOF 6
