REMARK SMILES Cc1ccc(-c2nnc([N-]C(=O)c3ccc4c(=O)n(-c5ccccc5F)c([S-])nc4c3)[nH]2)cc1
REMARK SMILES IDX 11 1 12 2 10 3 9 4 6 5 32 6 7 7 8 9 5 10 1 11 2 12 34 13
REMARK SMILES IDX 3 14 33 15 4 16 13 17 31 18 14 19 30 20 15 21 16 22 29 23
REMARK SMILES IDX 17 24 27 25 19 26 18 27 28 28 20 29 25 30 21 31 24 32 26 33
REMARK SMILES IDX 22 34 23 35
REMARK H PARENT 32 8
REMARK Flexibility Score: inf
ROOT
ATOM      1  C   UNL     1       6.587   1.906  -0.051  1.00  0.00     0.210 C 
ATOM      2  O   UNL     1       5.910   2.916  -0.039  1.00  0.00    -0.285 OA
ENDROOT
BRANCH   1   3
ATOM      3  N   UNL     1       5.994   0.696  -0.053  1.00  0.00    -0.322 NA
BRANCH   3   4
ATOM      4  C   UNL     1       4.610   0.603  -0.040  1.00  0.00     0.042 A 
ATOM      5  C   UNL     1       2.479   1.075  -0.016  1.00  0.00     0.089 A 
ATOM      6  N   UNL     1       3.728   1.645  -0.031  1.00  0.00    -0.394 N 
ATOM      7  N   UNL     1       2.649  -0.228  -0.016  1.00  0.00    -0.219 NA
ATOM      8  H   UNL     1       3.953   2.650  -0.034  1.00  0.00     0.076 HD
ATOM      9  N   UNL     1       3.904  -0.504  -0.033  1.00  0.00    -0.274 NA
BRANCH   5  10
ATOM     10  C   UNL     1       1.185   1.792  -0.004  1.00  0.00     0.003 A 
ATOM     11  C   UNL     1      -2.554   3.865   0.032  1.00  0.00     0.044 C 
ATOM     12  C   UNL     1      -1.236   3.134   0.019  1.00  0.00    -0.051 A 
ATOM     13  C   UNL     1      -0.052   3.850   0.016  1.00  0.00     0.004 A 
ATOM     14  C   UNL     1      -1.216   1.751   0.004  1.00  0.00     0.004 A 
ATOM     15  C   UNL     1       1.158   3.187   0.004  1.00  0.00     0.011 A 
ATOM     16  C   UNL     1      -0.013   1.076  -0.001  1.00  0.00     0.011 A 
ENDBRANCH   5  10
ENDBRANCH   3   4
ENDBRANCH   1   3
BRANCH   1  17
ATOM     17  C   UNL     1       8.064   2.006  -0.065  1.00  0.00     0.028 A 
ATOM     18  C   UNL     1       8.674   3.259  -0.070  1.00  0.00     0.041 A 
ATOM     19  C   UNL     1       8.840   0.843  -0.080  1.00  0.00     0.013 A 
ATOM     20  C   UNL     1      10.058   3.344  -0.078  1.00  0.00     0.076 A 
ATOM     21  C   UNL     1      10.205   0.921  -0.093  1.00  0.00     0.017 A 
ATOM     22  C   UNL     1      10.827   2.168  -0.092  1.00  0.00     0.066 A 
ATOM     23  N   UNL     1      10.709   4.569  -0.078  1.00  0.00    -0.259 NA
ATOM     24  C   UNL     1      12.298   2.297  -0.106  1.00  0.00     0.264 A 
ATOM     25  C   UNL     1      12.052   4.631  -0.091  1.00  0.00    -0.006 A 
ATOM     26  N   UNL     1      12.831   3.538  -0.105  1.00  0.00    -0.282 N 
ATOM     27  O   UNL     1      13.011   1.312  -0.118  1.00  0.00    -0.268 OA
ATOM     28  S   UNL     1      12.800   6.171  -0.091  1.00  0.00    -0.742 S 
BRANCH  26  29
ATOM     29  C   UNL     1      14.224   3.688  -0.118  1.00  0.00     0.084 A 
ATOM     30  C   UNL     1      14.905   3.769  -1.327  1.00  0.00     0.147 A 
ATOM     31  C   UNL     1      14.927   3.761   1.077  1.00  0.00     0.030 A 
ATOM     32  C   UNL     1      16.280   3.917  -1.335  1.00  0.00     0.041 A 
ATOM     33  F   UNL     1      14.225   3.703  -2.493  1.00  0.00    -0.205 F 
ATOM     34  C   UNL     1      16.301   3.904   1.061  1.00  0.00     0.002 A 
ATOM     35  C   UNL     1      16.977   3.984  -0.143  1.00  0.00     0.003 A 
ENDBRANCH  26  29
ENDBRANCH   1  17
TORSDOF 5
