REMARK SMILES Nn1c(SCc2cc(F)cc3c2OCOC3)nnc1-c1cccc(Br)c1
REMARK SMILES IDX 4 1 3 2 19 3 2 4 18 5 17 6 20 7 22 8 23 9 21 10 24 11 26 12
REMARK SMILES IDX 25 13 1 14 5 17 6 18 12 19 7 20 11 21 13 22 8 23 10 24 16 25
REMARK SMILES IDX 14 26 9 27 15 28
REMARK H PARENT 1 15 1 16
REMARK Flexibility Score: inf
ROOT
ATOM      1  S   UNL     1      -1.857   0.525   4.613  1.00  0.00    -0.079 SA
ENDROOT
BRANCH   1   2
ATOM      2  C   UNL     1      -0.763   0.941   5.930  1.00  0.00     0.210 A 
ATOM      3  C   UNL     1       0.672   0.842   7.574  1.00  0.00     0.183 A 
ATOM      4  N   UNL     1      -0.024   0.067   6.675  1.00  0.00    -0.217 N 
ATOM      5  N   UNL     1       0.339   2.091   7.345  1.00  0.00    -0.127 NA
ATOM      6  N   UNL     1      -0.501   2.150   6.374  1.00  0.00    -0.121 NA
BRANCH   3   7
ATOM      7  C   UNL     1       1.615   0.359   8.605  1.00  0.00     0.022 A 
ATOM      8  C   UNL     1       2.857   0.732  10.627  1.00  0.00     0.002 A 
ATOM      9  C   UNL     1       3.382  -0.545  10.537  1.00  0.00     0.016 A 
ATOM     10  C   UNL     1       1.976   1.188   9.668  1.00  0.00     0.012 A 
ATOM     11  C   UNL     1       3.028  -1.373   9.486  1.00  0.00     0.018 A 
ATOM     12  C   UNL     1       2.144  -0.930   8.522  1.00  0.00     0.027 A 
ATOM     13  Br  UNL     1       3.752  -3.116   9.372  1.00  0.00    -0.051 Br
ENDBRANCH   3   7
BRANCH   4  14
ATOM     14  N   UNL     1       0.016  -1.293   6.553  1.00  0.00    -0.335 N 
ATOM     15  H   UNL     1       0.643  -1.769   7.218  1.00  0.00     0.178 HD
ATOM     16  H   UNL     1      -0.530  -1.821   5.857  1.00  0.00     0.178 HD
ENDBRANCH   4  14
ENDBRANCH   1   2
BRANCH   1  17
ATOM     17  C   UNL     1      -2.434   2.177   4.151  1.00  0.00     0.117 C 
BRANCH  17  18
ATOM     18  C   UNL     1      -3.411   2.067   3.009  1.00  0.00     0.008 A 
ATOM     19  C   UNL     1      -2.955   2.114   1.699  1.00  0.00     0.132 A 
ATOM     20  C   UNL     1      -4.760   1.920   3.265  1.00  0.00     0.047 A 
ATOM     21  C   UNL     1      -3.854   2.009   0.649  1.00  0.00     0.023 A 
ATOM     22  O   UNL     1      -1.621   2.267   1.458  1.00  0.00    -0.467 OA
ATOM     23  C   UNL     1      -5.658   1.817   2.216  1.00  0.00     0.124 A 
ATOM     24  C   UNL     1      -5.203   1.862   0.909  1.00  0.00     0.049 A 
ATOM     25  C   UNL     1      -3.370   2.054  -0.778  1.00  0.00     0.204 C 
ATOM     26  C   UNL     1      -1.167   1.951   0.139  1.00  0.00     0.395 C 
ATOM     27  F   UNL     1      -6.977   1.674   2.468  1.00  0.00    -0.207 F 
ATOM     28  O   UNL     1      -2.039   2.578  -0.810  1.00  0.00    -0.340 OA
ENDBRANCH  17  18
ENDBRANCH   1  17
TORSDOF 5
