REMARK SMILES C[C@@H](NC(=O)Cn1[nH]c(=O)c2ccccc2c1=O)c1ccc2c(c1)CCCC2
REMARK SMILES IDX 3 1 4 2 5 3 2 5 1 6 19 7 24 8 20 9 23 10 21 11 22 12 25 13
REMARK SMILES IDX 28 14 26 15 27 16 6 17 7 18 8 19 17 20 9 21 18 23 16 24
REMARK SMILES IDX 11 25 10 26 15 27 12 28 14 29 13 30
REMARK H PARENT 3 4 8 22
REMARK Flexibility Score: inf
ROOT
ATOM      1  N   UNL     1      -7.096   1.325   2.049  1.00  0.00    -0.348 N 
ATOM      2  C   UNL     1      -8.398   1.607   1.849  1.00  0.00     0.242 C 
ATOM      3  O   UNL     1      -8.994   1.097   0.924  1.00  0.00    -0.273 OA
ATOM      4  H   UNL     1      -6.589   1.758   2.834  1.00  0.00     0.164 HD
ENDROOT
BRANCH   1   5
ATOM      5  C   UNL     1      -6.400   0.402   1.149  1.00  0.00     0.109 C 
ATOM      6  C   UNL     1      -6.632  -1.037   1.615  1.00  0.00     0.036 C 
BRANCH   5   7
ATOM      7  C   UNL     1      -4.923   0.703   1.164  1.00  0.00    -0.026 A 
ATOM      8  C   UNL     1      -4.196   0.659  -0.007  1.00  0.00     0.009 A 
ATOM      9  C   UNL     1      -4.293   1.023   2.353  1.00  0.00     0.006 A 
ATOM     10  C   UNL     1      -2.834   0.935  -0.003  1.00  0.00    -0.044 A 
ATOM     11  C   UNL     1      -2.941   1.299   2.358  1.00  0.00     0.004 A 
ATOM     12  C   UNL     1      -2.208   1.258   1.179  1.00  0.00    -0.045 A 
ATOM     13  C   UNL     1      -2.100   0.864  -1.316  1.00  0.00     0.036 C 
ATOM     14  C   UNL     1      -0.738   1.584   1.257  1.00  0.00     0.036 C 
ATOM     15  C   UNL     1      -0.765   1.599  -1.226  1.00  0.00     0.005 C 
ATOM     16  C   UNL     1      -0.013   1.086   0.008  1.00  0.00     0.005 C 
ENDBRANCH   5   7
ENDBRANCH   1   5
BRANCH   2  17
ATOM     17  C   UNL     1      -9.114   2.557   2.774  1.00  0.00     0.246 C 
BRANCH  17  18
ATOM     18  N   UNL     1     -10.509   2.696   2.348  1.00  0.00    -0.240 N 
ATOM     19  N   UNL     1     -10.840   3.697   1.433  1.00  0.00    -0.260 N 
ATOM     20  C   UNL     1     -11.432   1.851   2.846  1.00  0.00     0.273 A 
ATOM     21  C   UNL     1     -12.102   3.878   1.000  1.00  0.00     0.270 A 
ATOM     22  H   UNL     1     -10.096   4.315   1.078  1.00  0.00     0.192 HD
ATOM     23  O   UNL     1     -11.108   0.988   3.638  1.00  0.00    -0.267 OA
ATOM     24  C   UNL     1     -12.844   1.986   2.426  1.00  0.00     0.054 A 
ATOM     25  C   UNL     1     -13.178   2.996   1.502  1.00  0.00     0.054 A 
ATOM     26  O   UNL     1     -12.356   4.759   0.201  1.00  0.00    -0.267 OA
ATOM     27  C   UNL     1     -13.832   1.143   2.916  1.00  0.00     0.015 A 
ATOM     28  C   UNL     1     -14.493   3.143   1.085  1.00  0.00     0.015 A 
ATOM     29  C   UNL     1     -15.139   1.302   2.490  1.00  0.00     0.001 A 
ATOM     30  C   UNL     1     -15.467   2.294   1.582  1.00  0.00     0.001 A 
ENDBRANCH  17  18
ENDBRANCH   2  17
TORSDOF 4
