REMARK SMILES O=C(NCc1ccccc1-c1ccc(C[NH+]2CCCC2)cc1)NNC(=O)c1ccccc1-n1cccc1
REMARK SMILES IDX 4 1 5 2 7 3 6 4 8 5 9 6 10 7 11 8 22 9 12 10 21 11 13 12
REMARK SMILES IDX 14 13 15 14 16 15 20 16 17 17 19 19 18 20 3 21 2 22 1 24
REMARK SMILES IDX 23 25 24 27 25 28 26 30 27 31 32 32 28 33 31 34 29 35 30 36
REMARK SMILES IDX 33 37 37 38 34 39 36 40 35 41
REMARK H PARENT 16 18 3 23 23 26 24 29
REMARK Flexibility Score: inf
ROOT
ATOM      1  C   UNL     1      -4.944   8.791  -0.491  1.00  0.00     0.154 C 
ENDROOT
BRANCH   1   2
ATOM      2  C   UNL     1      -6.050   7.808  -0.201  1.00  0.00    -0.021 A 
ATOM      3  C   UNL     1      -7.895   6.481  -0.954  1.00  0.00     0.000 A 
ATOM      4  C   UNL     1      -6.880   7.382  -1.218  1.00  0.00     0.006 A 
ATOM      5  C   UNL     1      -8.083   6.000   0.330  1.00  0.00     0.001 A 
ATOM      6  C   UNL     1      -7.258   6.418   1.354  1.00  0.00     0.009 A 
ATOM      7  C   UNL     1      -6.231   7.324   1.092  1.00  0.00    -0.013 A 
BRANCH   7   8
ATOM      8  C   UNL     1      -5.338   7.773   2.188  1.00  0.00    -0.018 A 
ATOM      9  C   UNL     1      -5.202   9.132   2.467  1.00  0.00     0.009 A 
ATOM     10  C   UNL     1      -4.636   6.838   2.946  1.00  0.00     0.009 A 
ATOM     11  C   UNL     1      -4.369   9.544   3.487  1.00  0.00     0.010 A 
ATOM     12  C   UNL     1      -3.802   7.262   3.961  1.00  0.00     0.010 A 
ATOM     13  C   UNL     1      -3.670   8.612   4.233  1.00  0.00     0.006 A 
BRANCH  13  14
ATOM     14  C   UNL     1      -2.763   9.068   5.346  1.00  0.00     0.299 C 
BRANCH  14  15
ATOM     15  N   UNL     1      -3.523   9.139   6.600  1.00  0.00    -0.331 N 
ATOM     16  C   UNL     1      -2.624   9.350   7.755  1.00  0.00     0.262 C 
ATOM     17  C   UNL     1      -4.231   7.861   6.867  1.00  0.00     0.262 C 
ATOM     18  H   UNL     1      -4.186   9.920   6.492  1.00  0.00     0.348 HD
ATOM     19  C   UNL     1      -3.235   8.593   8.948  1.00  0.00     0.067 C 
ATOM     20  C   UNL     1      -4.510   7.920   8.390  1.00  0.00     0.067 C 
ENDBRANCH  14  15
ENDBRANCH  13  14
ENDBRANCH   7   8
ENDBRANCH   1   2
BRANCH   1  21
ATOM     21  N   UNL     1      -3.656   8.093  -0.485  1.00  0.00    -0.333 N 
ATOM     22  C   UNL     1      -2.511   8.790  -0.622  1.00  0.00     0.333 C 
ATOM     23  H   UNL     1      -3.626   7.069  -0.377  1.00  0.00     0.165 HD
ATOM     24  O   UNL     1      -2.547   9.999  -0.750  1.00  0.00    -0.247 OA
ATOM     25  N   UNL     1      -1.327   8.148  -0.616  1.00  0.00    -0.249 N 
ATOM     26  H   UNL     1      -0.451   8.681  -0.720  1.00  0.00     0.193 HD
BRANCH  25  27
ATOM     27  N   UNL     1      -1.285   6.755  -0.469  1.00  0.00    -0.262 N 
ATOM     28  C   UNL     1      -0.100   6.113  -0.463  1.00  0.00     0.271 C 
ATOM     29  H   UNL     1      -2.160   6.222  -0.365  1.00  0.00     0.191 HD
ATOM     30  O   UNL     1       0.933   6.742  -0.587  1.00  0.00    -0.267 OA
BRANCH  28  31
ATOM     31  C   UNL     1      -0.057   4.646  -0.308  1.00  0.00     0.065 A 
ATOM     32  C   UNL     1       1.172   3.989  -0.156  1.00  0.00     0.058 A 
ATOM     33  C   UNL     1      -1.240   3.904  -0.311  1.00  0.00     0.016 A 
ATOM     34  C   UNL     1       1.201   2.610  -0.011  1.00  0.00     0.027 A 
ATOM     35  C   UNL     1      -1.192   2.534  -0.171  1.00  0.00     0.001 A 
ATOM     36  C   UNL     1       0.024   1.889  -0.015  1.00  0.00     0.002 A 
BRANCH  32  37
ATOM     37  N   UNL     1       2.362   4.720  -0.152  1.00  0.00    -0.323 N 
ATOM     38  C   UNL     1       2.676   5.728   0.716  1.00  0.00     0.091 A 
ATOM     39  C   UNL     1       3.410   4.542  -1.011  1.00  0.00     0.091 A 
ATOM     40  C   UNL     1       3.905   6.185   0.404  1.00  0.00     0.020 A 
ATOM     41  C   UNL     1       4.370   5.435  -0.695  1.00  0.00     0.020 A 
ENDBRANCH  32  37
ENDBRANCH  28  31
ENDBRANCH  25  27
ENDBRANCH   1  21
TORSDOF 8
