REMARK SMILES COc1cccc(N2C[C@@H](C(=O)Nc3n[n-]c(-c4ccccc4)n3)CC2=O)c1
REMARK SMILES IDX 8 1 9 2 10 3 25 4 26 5 27 6 7 7 3 8 28 9 4 10 5 11 6 12 2 13
REMARK SMILES IDX 1 14 11 15 12 16 13 17 14 19 24 20 15 21 17 22 16 23 18 24
REMARK SMILES IDX 23 25 19 26 22 27 20 28 21 29
REMARK H PARENT 13 18
REMARK Flexibility Score: inf
ROOT
ATOM      1  N   UNL     1      -4.304  -2.381  -1.406  1.00  0.00    -0.311 N 
ATOM      2  C   UNL     1      -4.227  -2.004   0.010  1.00  0.00     0.139 C 
ATOM      3  C   UNL     1      -4.143  -0.462   0.023  1.00  0.00     0.108 C 
ATOM      4  C   UNL     1      -4.827  -0.098  -1.315  1.00  0.00     0.116 C 
ATOM      5  C   UNL     1      -4.645  -1.330  -2.173  1.00  0.00     0.227 C 
ATOM      6  O   UNL     1      -4.787  -1.366  -3.377  1.00  0.00    -0.274 OA
ENDROOT
BRANCH   1   7
ATOM      7  C   UNL     1      -4.056  -3.668  -1.896  1.00  0.00     0.047 A 
ATOM      8  C   UNL     1      -4.023  -5.230  -3.718  1.00  0.00     0.120 A 
ATOM      9  C   UNL     1      -4.275  -3.956  -3.236  1.00  0.00     0.072 A 
ATOM     10  C   UNL     1      -3.562  -6.218  -2.859  1.00  0.00     0.046 A 
ATOM     11  C   UNL     1      -3.350  -5.931  -1.524  1.00  0.00     0.006 A 
ATOM     12  C   UNL     1      -3.595  -4.660  -1.040  1.00  0.00     0.026 A 
BRANCH   8  13
ATOM     13  O   UNL     1      -4.231  -5.514  -5.031  1.00  0.00    -0.497 OA
ATOM     14  C   UNL     1      -3.955  -6.850  -5.457  1.00  0.00     0.278 C 
ENDBRANCH   8  13
ENDBRANCH   1   7
BRANCH   3  15
ATOM     15  C   UNL     1      -2.708  -0.001   0.037  1.00  0.00     0.230 C 
ATOM     16  O   UNL     1      -1.809  -0.815   0.038  1.00  0.00    -0.274 OA
ATOM     17  N   UNL     1      -2.424   1.317   0.050  1.00  0.00    -0.313 N 
ATOM     18  H   UNL     1      -3.187   2.008   0.049  1.00  0.00     0.171 HD
BRANCH  17  19
ATOM     19  C   UNL     1      -1.102   1.742   0.063  1.00  0.00     0.122 A 
ATOM     20  N   UNL     1      -0.694   2.990   0.079  1.00  0.00    -0.403 NA
ATOM     21  N   UNL     1      -0.013   0.944   0.065  1.00  0.00    -0.244 NA
ATOM     22  C   UNL     1       0.646   3.026   0.082  1.00  0.00    -0.032 A 
ATOM     23  N   UNL     1       1.104   1.794   0.074  1.00  0.00    -0.352 NA
BRANCH  22  24
ATOM     24  C   UNL     1       1.477   4.255   0.093  1.00  0.00    -0.025 A 
ATOM     25  C   UNL     1       2.867   4.160   0.095  1.00  0.00     0.008 A 
ATOM     26  C   UNL     1       0.869   5.509   0.096  1.00  0.00     0.008 A 
ATOM     27  C   UNL     1       3.635   5.307   0.105  1.00  0.00     0.001 A 
ATOM     28  C   UNL     1       1.647   6.650   0.112  1.00  0.00     0.001 A 
ATOM     29  C   UNL     1       3.026   6.550   0.113  1.00  0.00     0.000 A 
ENDBRANCH  22  24
ENDBRANCH  17  19
ENDBRANCH   3  15
TORSDOF 5
