REMARK SMILES Nc1nonc1C(=O)NCC[NH2+]Cc1c(OCc2ccc(Cl)cc2Cl)ccc2ccccc12
REMARK SMILES IDX 12 1 13 4 14 5 30 6 29 7 31 8 28 9 32 10 33 11 27 12 26 13
REMARK SMILES IDX 15 14 16 15 17 16 18 17 24 18 19 19 23 20 25 21 20 22 21 23
REMARK SMILES IDX 22 24 11 25 10 26 9 27 7 28 8 30 6 31 5 32 2 33 4 34 3 35
REMARK SMILES IDX 1 36
REMARK H PARENT 12 2 12 3 9 29 1 37 1 38
REMARK Flexibility Score: inf
ROOT
ATOM      1  N   UNL     1      -1.830   6.226   1.445  1.00  0.00    -0.341 N 
ATOM      2  H   UNL     1      -1.933   5.321   1.925  1.00  0.00     0.346 HD
ATOM      3  H   UNL     1      -1.107   6.782   1.924  1.00  0.00     0.346 HD
ENDROOT
BRANCH   1   4
ATOM      4  C   UNL     1      -1.423   5.995   0.046  1.00  0.00     0.301 C 
BRANCH   4   5
ATOM      5  C   UNL     1      -0.112   5.253   0.029  1.00  0.00     0.056 A 
ATOM      6  C   UNL     1      -0.013   1.076   0.008  1.00  0.00     0.001 A 
ATOM      7  C   UNL     1       1.163   1.762   0.000  1.00  0.00     0.009 A 
ATOM      8  C   UNL     1      -1.235   1.746   0.017  1.00  0.00     0.001 A 
ATOM      9  C   UNL     1       1.148   3.167   0.008  1.00  0.00    -0.018 A 
ATOM     10  C   UNL     1      -1.288   3.105   0.030  1.00  0.00     0.009 A 
ATOM     11  C   UNL     1      -0.095   3.849   0.023  1.00  0.00    -0.006 A 
ATOM     12  C   UNL     1       2.342   3.909  -0.001  1.00  0.00     0.012 A 
ATOM     13  C   UNL     1       2.292   5.268   0.006  1.00  0.00     0.047 A 
ATOM     14  C   UNL     1       1.067   5.942   0.021  1.00  0.00     0.129 A 
BRANCH  14  15
ATOM     15  O   UNL     1       1.050   7.301   0.027  1.00  0.00    -0.488 OA
BRANCH  15  16
ATOM     16  C   UNL     1       2.315   7.966   0.018  1.00  0.00     0.267 C 
BRANCH  16  17
ATOM     17  C   UNL     1       2.098   9.457   0.027  1.00  0.00     0.008 A 
ATOM     18  C   UNL     1       3.184  10.314   0.026  1.00  0.00     0.049 A 
ATOM     19  C   UNL     1       0.814   9.969   0.041  1.00  0.00     0.010 A 
ATOM     20  C   UNL     1       2.985  11.683   0.029  1.00  0.00     0.041 A 
ATOM     21  Cl  UNL     1       4.797   9.671   0.015  1.00  0.00    -0.084 Cl
ATOM     22  C   UNL     1       0.614  11.336   0.050  1.00  0.00     0.021 A 
ATOM     23  C   UNL     1       1.700  12.194   0.043  1.00  0.00     0.042 A 
ATOM     24  Cl  UNL     1       1.449  13.912   0.053  1.00  0.00    -0.084 Cl
ENDBRANCH  16  17
ENDBRANCH  15  16
ENDBRANCH  14  15
ENDBRANCH   4   5
ENDBRANCH   1   4
BRANCH   1  25
ATOM     25  C   UNL     1      -3.113   6.953   1.491  1.00  0.00     0.282 C 
BRANCH  25  26
ATOM     26  C   UNL     1      -3.509   7.178   2.952  1.00  0.00     0.177 C 
BRANCH  26  27
ATOM     27  N   UNL     1      -4.783   7.899   3.007  1.00  0.00    -0.345 N 
ATOM     28  C   UNL     1      -5.331   8.210   4.199  1.00  0.00     0.277 C 
ATOM     29  H   UNL     1      -5.261   8.168   2.135  1.00  0.00     0.164 HD
ATOM     30  O   UNL     1      -4.767   7.892   5.228  1.00  0.00    -0.267 OA
BRANCH  28  31
ATOM     31  C   UNL     1      -6.619   8.939   4.255  1.00  0.00     0.216 A 
ATOM     32  N   UNL     1      -7.366   9.367   3.260  1.00  0.00    -0.042 NA
ATOM     33  C   UNL     1      -7.386   9.374   5.444  1.00  0.00     0.201 A 
ATOM     34  O   UNL     1      -8.347   9.916   3.704  1.00  0.00    -0.242 OA
ATOM     35  N   UNL     1      -8.430   9.965   4.909  1.00  0.00    -0.032 NA
BRANCH  33  36
ATOM     36  N   UNL     1      -7.079   9.202   6.786  1.00  0.00    -0.379 N 
ATOM     37  H   UNL     1      -6.193   8.701   6.944  1.00  0.00     0.158 HD
ATOM     38  H   UNL     1      -7.662   9.533   7.569  1.00  0.00     0.158 HD
ENDBRANCH  33  36
ENDBRANCH  28  31
ENDBRANCH  26  27
ENDBRANCH  25  26
ENDBRANCH   1  25
TORSDOF 10
