REMARK SMILES COc1ccc2cc(CNC(=O)N[C@@H]3CC4(CC[NH+](C)CC4)Oc4ccccc43)ccc2c1
REMARK SMILES IDX 9 1 10 2 13 3 11 4 12 6 14 8 20 9 19 10 21 11 18 12 22 14
REMARK SMILES IDX 17 15 16 16 23 17 15 18 24 19 29 20 25 21 28 22 26 23 27 24
REMARK SMILES IDX 8 25 7 26 30 27 6 28 31 29 32 30 5 31 33 32 4 33 3 34 2 35
REMARK SMILES IDX 1 36
REMARK H PARENT 13 5 10 7 19 13
REMARK Flexibility Score: inf
ROOT
ATOM      1  C   UNL     1       0.956   8.539  -0.847  1.00  0.00     0.153 C 
ENDROOT
BRANCH   1   2
ATOM      2  N   UNL     1       1.580   7.300  -1.315  1.00  0.00    -0.334 N 
ATOM      3  N   UNL     1       2.289   5.113  -0.906  1.00  0.00    -0.331 N 
ATOM      4  C   UNL     1       1.714   6.254  -0.475  1.00  0.00     0.315 C 
ATOM      5  H   UNL     1       2.626   5.041  -1.876  1.00  0.00     0.166 HD
ATOM      6  O   UNL     1       1.316   6.339   0.671  1.00  0.00    -0.249 OA
ATOM      7  H   UNL     1       1.917   7.227  -2.285  1.00  0.00     0.165 HD
BRANCH   3   8
ATOM      8  C   UNL     1       2.434   3.976   0.007  1.00  0.00     0.122 C 
ATOM      9  C   UNL     1       4.890  -1.236   3.041  1.00  0.00     0.332 C 
ATOM     10  N   UNL     1       4.767  -0.026   2.217  1.00  0.00    -0.337 N 
ATOM     11  C   UNL     1       4.743  -0.363   0.789  1.00  0.00     0.266 C 
ATOM     12  C   UNL     1       3.582   0.752   2.600  1.00  0.00     0.266 C 
ATOM     13  H   UNL     1       5.596   0.560   2.388  1.00  0.00     0.347 HD
ATOM     14  C   UNL     1       4.763   0.923  -0.040  1.00  0.00     0.110 C 
ATOM     15  C   UNL     1       3.566   2.072   1.826  1.00  0.00     0.110 C 
ATOM     16  C   UNL     1       3.549   1.780   0.325  1.00  0.00     0.122 C 
ATOM     17  O   UNL     1       2.350   1.089  -0.021  1.00  0.00    -0.486 OA
ATOM     18  C   UNL     1       3.600   3.098  -0.455  1.00  0.00     0.079 C 
ATOM     19  C   UNL     1       1.184   1.786   0.000  1.00  0.00     0.125 A 
ATOM     20  C   UNL     1       1.161   3.169   0.009  1.00  0.00     0.017 A 
ATOM     21  C   UNL     1      -0.013   1.076   0.008  1.00  0.00     0.047 A 
ATOM     22  C   UNL     1      -0.052   3.838   0.022  1.00  0.00     0.010 A 
ATOM     23  C   UNL     1      -1.218   1.747   0.017  1.00  0.00     0.004 A 
ATOM     24  C   UNL     1      -1.238   3.130   0.029  1.00  0.00     0.001 A 
ENDBRANCH   3   8
ENDBRANCH   1   2
BRANCH   1  25
ATOM     25  C   UNL     1       0.929   9.543  -1.970  1.00  0.00    -0.028 A 
ATOM     26  C   UNL     1       1.974  10.400  -2.129  1.00  0.00     0.014 A 
ATOM     27  C   UNL     1      -0.169   9.584  -2.828  1.00  0.00     0.006 A 
ATOM     28  C   UNL     1       1.955  11.334  -3.178  1.00  0.00    -0.018 A 
ATOM     29  C   UNL     1      -0.225  10.479  -3.852  1.00  0.00     0.009 A 
ATOM     30  C   UNL     1       0.838  11.376  -4.050  1.00  0.00    -0.015 A 
ATOM     31  C   UNL     1       3.019  12.232  -3.375  1.00  0.00     0.012 A 
ATOM     32  C   UNL     1       0.815  12.314  -5.096  1.00  0.00     0.055 A 
ATOM     33  C   UNL     1       2.967  13.127  -4.397  1.00  0.00     0.047 A 
ATOM     34  C   UNL     1       1.866  13.170  -5.258  1.00  0.00     0.119 A 
BRANCH  34  35
ATOM     35  O   UNL     1       1.842  14.077  -6.271  1.00  0.00    -0.497 OA
ATOM     36  C   UNL     1       2.970  14.946  -6.390  1.00  0.00     0.278 C 
ENDBRANCH  34  35
ENDBRANCH   1  25
TORSDOF 4
