REMARK SMILES CCCCC[C@H](CC)NC(=O)c1ccccc1N1C(=O)N2CCc3c([nH]c4ccccc34)[C@@]2(C)C1=O
REMARK SMILES IDX 5 1 4 2 3 3 2 4 1 5 6 6 7 7 8 8 9 9 10 10 11 12 12 13 17 14
REMARK SMILES IDX 13 15 16 16 14 17 15 18 18 19 19 20 35 21 21 22 20 23 36 24
REMARK SMILES IDX 33 25 22 26 25 27 34 28 23 29 26 30 24 31 27 32 32 34 28 35
REMARK SMILES IDX 31 36 29 37 30 38
REMARK H PARENT 9 11 26 33
REMARK Flexibility Score: inf
ROOT
ATOM      1  C   UNL     1      -1.416  -2.058  -0.121  1.00  0.00     0.025 C 
ENDROOT
BRANCH   1   2
ATOM      2  C   UNL     1      -2.850  -2.576  -0.236  1.00  0.00     0.002 C 
BRANCH   2   3
ATOM      3  C   UNL     1      -2.833  -4.100  -0.370  1.00  0.00    -0.000 C 
BRANCH   3   4
ATOM      4  C   UNL     1      -4.268  -4.619  -0.484  1.00  0.00    -0.003 C 
ATOM      5  C   UNL     1      -4.250  -6.143  -0.618  1.00  0.00     0.004 C 
ENDBRANCH   3   4
ENDBRANCH   2   3
ENDBRANCH   1   2
BRANCH   1   6
ATOM      6  C   UNL     1      -1.433  -0.534   0.013  1.00  0.00     0.082 C 
BRANCH   6   7
ATOM      7  C   UNL     1       0.002  -0.004   0.002  1.00  0.00     0.021 C 
ATOM      8  C   UNL     1      -0.019   1.526   0.010  1.00  0.00     0.006 C 
ENDBRANCH   6   7
BRANCH   6   9
ATOM      9  N   UNL     1      -2.082  -0.162   1.273  1.00  0.00    -0.349 N 
ATOM     10  C   UNL     1      -2.664   1.047   1.400  1.00  0.00     0.253 C 
ATOM     11  H   UNL     1      -2.092  -0.824   2.062  1.00  0.00     0.164 HD
ATOM     12  O   UNL     1      -2.651   1.829   0.469  1.00  0.00    -0.269 OA
BRANCH  10  13
ATOM     13  C   UNL     1      -3.317   1.422   2.669  1.00  0.00     0.064 A 
ATOM     14  C   UNL     1      -3.924   2.678   2.806  1.00  0.00     0.066 A 
ATOM     15  C   UNL     1      -3.339   0.524   3.740  1.00  0.00     0.016 A 
ATOM     16  C   UNL     1      -4.535   3.019   4.004  1.00  0.00     0.028 A 
ATOM     17  C   UNL     1      -3.946   0.882   4.924  1.00  0.00     0.001 A 
ATOM     18  C   UNL     1      -4.544   2.125   5.056  1.00  0.00     0.002 A 
BRANCH  14  19
ATOM     19  N   UNL     1      -3.913   3.582   1.742  1.00  0.00    -0.229 N 
ATOM     20  C   UNL     1      -2.948   4.494   1.535  1.00  0.00     0.332 C 
ATOM     21  C   UNL     1      -4.868   3.646   0.788  1.00  0.00     0.267 C 
ATOM     22  N   UNL     1      -3.112   5.132   0.376  1.00  0.00    -0.304 N 
ATOM     23  O   UNL     1      -2.037   4.710   2.309  1.00  0.00    -0.247 OA
ATOM     24  O   UNL     1      -5.831   2.919   0.665  1.00  0.00    -0.271 OA
ATOM     25  C   UNL     1      -4.484   4.814  -0.089  1.00  0.00     0.161 C 
ATOM     26  C   UNL     1      -2.187   5.954  -0.404  1.00  0.00     0.128 C 
ATOM     27  C   UNL     1      -4.332   4.393  -1.531  1.00  0.00     0.055 A 
ATOM     28  C   UNL     1      -5.436   6.002   0.061  1.00  0.00     0.053 C 
ATOM     29  C   UNL     1      -1.929   5.233  -1.736  1.00  0.00     0.060 C 
ATOM     30  N   UNL     1      -5.275   3.781  -2.312  1.00  0.00    -0.356 N 
ATOM     31  C   UNL     1      -3.201   4.602  -2.243  1.00  0.00    -0.015 A 
ATOM     32  C   UNL     1      -4.779   3.589  -3.568  1.00  0.00     0.046 A 
ATOM     33  H   UNL     1      -6.217   3.507  -1.998  1.00  0.00     0.166 HD
ATOM     34  C   UNL     1      -3.456   4.099  -3.581  1.00  0.00     0.003 A 
ATOM     35  C   UNL     1      -5.332   3.025  -4.716  1.00  0.00     0.026 A 
ATOM     36  C   UNL     1      -2.671   4.054  -4.737  1.00  0.00     0.010 A 
ATOM     37  C   UNL     1      -4.534   2.993  -5.846  1.00  0.00     0.002 A 
ATOM     38  C   UNL     1      -3.242   3.494  -5.853  1.00  0.00     0.001 A 
ENDBRANCH  14  19
ENDBRANCH  10  13
ENDBRANCH   6   9
ENDBRANCH   1   6
TORSDOF 8
