REMARK SMILES CC(C)c1nn(-c2c(Cl)cc(Cl)cc2Cl)c2nc(Cc3ccc(NC(=O)[C@@H]4C[NH2+]CCN4)cc3)[nH]c(=O)c12
REMARK SMILES IDX 20 1 21 2 22 3 23 4 33 5 34 6 19 7 18 8 4 9 5 10 38 11 6 12
REMARK SMILES IDX 16 13 36 14 17 15 37 16 35 17 2 19 1 20 3 21 7 22 8 23 14 24
REMARK SMILES IDX 10 25 9 26 13 27 15 28 11 29 12 30 24 31 25 32 26 34 27 35
REMARK SMILES IDX 32 36 28 37 31 38 29 40 30 41
REMARK H PARENT 35 18 24 33 32 39 29 42 29 43
REMARK Flexibility Score: inf
ROOT
ATOM      1  C   UNL     1       1.331   0.005  -0.605  1.00  0.00    -0.040 A 
ATOM      2  C   UNL     1       1.973  -0.250  -1.803  1.00  0.00     0.006 A 
ATOM      3  C   UNL     1       3.259  -0.755  -1.806  1.00  0.00     0.026 A 
ATOM      4  C   UNL     1       3.903  -1.015  -0.604  1.00  0.00     0.041 A 
ATOM      5  C   UNL     1       3.254  -0.763   0.598  1.00  0.00     0.026 A 
ATOM      6  C   UNL     1       1.970  -0.254   0.594  1.00  0.00     0.006 A 
ENDROOT
BRANCH   1   7
ATOM      7  C   UNL     1      -0.070   0.560  -0.606  1.00  0.00     0.111 C 
BRANCH   7   8
ATOM      8  C   UNL     1      -0.013   2.066  -0.600  1.00  0.00     0.115 A 
ATOM      9  C   UNL     1       0.550   6.121  -0.547  1.00  0.00     0.081 A 
ATOM     10  N   UNL     1       1.850   6.141  -0.429  1.00  0.00    -0.170 NA
ATOM     11  C   UNL     1       0.130   4.779  -0.586  1.00  0.00     0.108 A 
ATOM     12  N   UNL     1       2.336   4.829  -0.385  1.00  0.00    -0.211 N 
ATOM     13  C   UNL     1       1.278   3.978  -0.482  1.00  0.00     0.170 A 
ATOM     14  C   UNL     1      -1.167   4.112  -0.705  1.00  0.00     0.262 A 
ATOM     15  N   UNL     1       1.149   2.643  -0.494  1.00  0.00    -0.214 NA
ATOM     16  O   UNL     1      -2.200   4.750  -0.799  1.00  0.00    -0.269 OA
ATOM     17  N   UNL     1      -1.175   2.758  -0.711  1.00  0.00    -0.310 N 
ATOM     18  H   UNL     1      -2.067   2.251  -0.799  1.00  0.00     0.171 HD
BRANCH   9  19
ATOM     19  C   UNL     1      -0.346   7.330  -0.628  1.00  0.00     0.035 C 
ATOM     20  C   UNL     1      -0.187   8.168   0.642  1.00  0.00     0.014 C 
ATOM     21  C   UNL     1       0.039   8.171  -1.846  1.00  0.00     0.014 C 
ENDBRANCH   9  19
BRANCH  12  22
ATOM     22  C   UNL     1       3.682   4.455  -0.263  1.00  0.00     0.104 A 
ATOM     23  C   UNL     1       4.636   5.004  -1.110  1.00  0.00     0.069 A 
ATOM     24  C   UNL     1       4.064   3.539   0.709  1.00  0.00     0.069 A 
ATOM     25  C   UNL     1       5.963   4.634  -0.987  1.00  0.00     0.043 A 
ATOM     26  Cl  UNL     1       4.164   6.155  -2.321  1.00  0.00    -0.082 Cl
ATOM     27  C   UNL     1       5.391   3.169   0.824  1.00  0.00     0.043 A 
ATOM     28  Cl  UNL     1       2.876   2.855   1.774  1.00  0.00    -0.082 Cl
ATOM     29  C   UNL     1       6.340   3.718  -0.021  1.00  0.00     0.044 A 
ATOM     30  Cl  UNL     1       8.006   3.256   0.131  1.00  0.00    -0.084 Cl
ENDBRANCH  12  22
ENDBRANCH   7   8
ENDBRANCH   1   7
BRANCH   4  31
ATOM     31  N   UNL     1       5.204  -1.531  -0.603  1.00  0.00    -0.325 N 
ATOM     32  C   UNL     1       5.585  -2.399   0.354  1.00  0.00     0.247 C 
ATOM     33  H   UNL     1       5.871  -1.246  -1.335  1.00  0.00     0.169 HD
ATOM     34  O   UNL     1       4.773  -2.812   1.156  1.00  0.00    -0.273 OA
BRANCH  32  35
ATOM     35  C   UNL     1       7.018  -2.858   0.429  1.00  0.00     0.200 C 
ATOM     36  N   UNL     1       7.294  -3.387   1.772  1.00  0.00    -0.296 NA
ATOM     37  C   UNL     1       7.257  -3.957  -0.608  1.00  0.00     0.289 C 
ATOM     38  C   UNL     1       8.681  -3.860   1.874  1.00  0.00     0.143 C 
ATOM     39  H   UNL     1       7.136  -2.646   2.469  1.00  0.00     0.123 HD
ATOM     40  N   UNL     1       8.645  -4.430  -0.506  1.00  0.00    -0.343 N 
ATOM     41  C   UNL     1       8.921  -4.959   0.837  1.00  0.00     0.276 C 
ATOM     42  H   UNL     1       8.804  -5.172  -1.203  1.00  0.00     0.346 HD
ATOM     43  H   UNL     1       9.287  -3.648  -0.701  1.00  0.00     0.346 HD
ENDBRANCH  32  35
ENDBRANCH   4  31
TORSDOF 6
