REMARK SMILES Cc1ccc(-c2sc(-c3ccccc3)nc2CC(=O)NCCc2nc3ccccc3[nH]2)cc1
REMARK SMILES IDX 18 1 19 2 20 3 17 5 16 6 6 7 7 8 8 9 15 10 5 11 1 12 2 13
REMARK SMILES IDX 33 14 3 15 32 16 4 17 9 18 14 19 10 20 13 21 11 22 12 23
REMARK SMILES IDX 21 24 22 25 23 26 24 27 31 28 25 29 30 30 26 32 29 33 27 34
REMARK SMILES IDX 28 35
REMARK H PARENT 20 4 31 31
REMARK Flexibility Score: inf
ROOT
ATOM      1  C   UNL     1       3.643   6.820   1.502  1.00  0.00     0.226 C 
ATOM      2  O   UNL     1       3.052   6.265   2.403  1.00  0.00    -0.275 OA
ATOM      3  N   UNL     1       4.697   7.614   1.776  1.00  0.00    -0.355 N 
ATOM      4  H   UNL     1       5.200   8.085   1.010  1.00  0.00     0.163 HD
ENDROOT
BRANCH   1   5
ATOM      5  C   UNL     1       3.200   6.622   0.075  1.00  0.00     0.157 C 
BRANCH   5   6
ATOM      6  C   UNL     1       2.010   5.697   0.043  1.00  0.00     0.069 A 
ATOM      7  C   UNL     1       0.737   6.210   0.003  1.00  0.00     0.058 A 
ATOM      8  S   UNL     1      -0.224   4.702  -0.021  1.00  0.00    -0.113 S 
ATOM      9  C   UNL     1       1.154   3.564   0.023  1.00  0.00     0.124 A 
ATOM     10  N   UNL     1       2.183   4.400   0.057  1.00  0.00    -0.240 NA
BRANCH   7  11
ATOM     11  C   UNL     1       0.286   7.617  -0.015  1.00  0.00    -0.006 A 
ATOM     12  C   UNL     1      -1.019  11.690  -0.067  1.00  0.00     0.044 C 
ATOM     13  C   UNL     1      -0.559  10.255  -0.049  1.00  0.00    -0.051 A 
ATOM     14  C   UNL     1       0.390   9.847   0.873  1.00  0.00     0.004 A 
ATOM     15  C   UNL     1      -1.088   9.350  -0.953  1.00  0.00     0.004 A 
ATOM     16  C   UNL     1       0.811   8.534   0.898  1.00  0.00     0.010 A 
ATOM     17  C   UNL     1      -0.671   8.035  -0.941  1.00  0.00     0.010 A 
ENDBRANCH   7  11
BRANCH   9  18
ATOM     18  C   UNL     1       1.148   2.086   0.028  1.00  0.00     0.010 A 
ATOM     19  C   UNL     1       2.352   1.380   0.066  1.00  0.00     0.011 A 
ATOM     20  C   UNL     1      -0.061   1.390  -0.006  1.00  0.00     0.011 A 
ATOM     21  C   UNL     1       2.339   0.001   0.069  1.00  0.00     0.001 A 
ATOM     22  C   UNL     1      -0.060   0.010  -0.002  1.00  0.00     0.001 A 
ATOM     23  C   UNL     1       1.137  -0.683   0.035  1.00  0.00     0.000 A 
ENDBRANCH   9  18
ENDBRANCH   5   6
ENDBRANCH   1   5
BRANCH   3  24
ATOM     24  C   UNL     1       5.128   7.807   3.163  1.00  0.00     0.124 C 
BRANCH  24  25
ATOM     25  C   UNL     1       6.336   8.745   3.195  1.00  0.00     0.096 C 
BRANCH  25  26
ATOM     26  C   UNL     1       6.779   8.944   4.622  1.00  0.00     0.108 A 
ATOM     27  N   UNL     1       6.016   9.364   5.588  1.00  0.00    -0.233 NA
ATOM     28  N   UNL     1       8.038   8.715   5.086  1.00  0.00    -0.342 N 
ATOM     29  C   UNL     1       6.731   9.425   6.741  1.00  0.00     0.089 A 
ATOM     30  C   UNL     1       8.039   9.013   6.434  1.00  0.00     0.065 A 
ATOM     31  H   UNL     1       8.841   8.381   4.534  1.00  0.00     0.168 HD
ATOM     32  C   UNL     1       6.418   9.799   8.051  1.00  0.00     0.030 A 
ATOM     33  C   UNL     1       9.004   8.979   7.431  1.00  0.00     0.028 A 
ATOM     34  C   UNL     1       7.380   9.759   9.019  1.00  0.00     0.002 A 
ATOM     35  C   UNL     1       8.672   9.351   8.716  1.00  0.00     0.002 A 
ENDBRANCH  25  26
ENDBRANCH  24  25
ENDBRANCH   3  24
TORSDOF 7
