REMARK SMILES C[C@H]1CCc2sc(C(=O)NNC(=O)N[C@H](c3ccc(Cl)cc3)c3nccn3C)cc2C1
REMARK SMILES IDX 11 1 12 2 13 3 14 4 10 7 8 8 9 9 7 11 1 12 2 13 31 14 3 15
REMARK SMILES IDX 30 16 4 17 5 18 29 19 6 20 15 21 16 22 22 23 17 24 21 25
REMARK SMILES IDX 18 26 19 27 20 28 23 29 27 30 24 31 26 32 28 33 25 34
REMARK H PARENT 11 5 14 6 10 10
REMARK Flexibility Score: inf
ROOT
ATOM      1  N   UNL     1       3.596   1.392   0.645  1.00  0.00    -0.249 N 
ATOM      2  C   UNL     1       2.331   0.926   0.654  1.00  0.00     0.334 C 
ATOM      3  O   UNL     1       2.065  -0.097   1.255  1.00  0.00    -0.247 OA
ATOM      4  N   UNL     1       1.362   1.593  -0.002  1.00  0.00    -0.323 N 
ATOM      5  H   UNL     1       4.337   0.882   1.147  1.00  0.00     0.193 HD
ATOM      6  H   UNL     1       1.587   2.459  -0.512  1.00  0.00     0.166 HD
ENDROOT
BRANCH   1   7
ATOM      7  N   UNL     1       3.902   2.571  -0.048  1.00  0.00    -0.261 N 
ATOM      8  C   UNL     1       5.167   3.037  -0.057  1.00  0.00     0.279 C 
ATOM      9  O   UNL     1       6.042   2.435   0.536  1.00  0.00    -0.266 OA
ATOM     10  H   UNL     1       3.161   3.081  -0.550  1.00  0.00     0.191 HD
BRANCH   8  11
ATOM     11  C   UNL     1       5.487   4.270  -0.782  1.00  0.00     0.094 A 
ATOM     12  C   UNL     1       8.952   9.041  -2.704  1.00  0.00     0.008 C 
ATOM     13  C   UNL     1       7.677   8.289  -2.317  1.00  0.00    -0.010 C 
ATOM     14  C   UNL     1       8.039   6.870  -1.875  1.00  0.00     0.040 C 
ATOM     15  C   UNL     1       6.733   8.235  -3.521  1.00  0.00     0.009 C 
ATOM     16  C   UNL     1       6.752   6.079  -1.661  1.00  0.00    -0.033 A 
ATOM     17  C   UNL     1       5.362   7.725  -3.051  1.00  0.00     0.047 C 
ATOM     18  C   UNL     1       5.576   6.505  -2.210  1.00  0.00     0.009 A 
ATOM     19  C   UNL     1       6.705   4.912  -0.916  1.00  0.00     0.029 A 
ATOM     20  S   UNL     1       4.410   5.332  -1.729  1.00  0.00    -0.135 S 
ENDBRANCH   8  11
ENDBRANCH   1   7
BRANCH   4  21
ATOM     21  C   UNL     1      -0.013   1.086   0.008  1.00  0.00     0.181 C 
BRANCH  21  22
ATOM     22  C   UNL     1      -0.742   1.585  -1.213  1.00  0.00    -0.018 A 
ATOM     23  C   UNL     1      -1.605   0.747  -1.893  1.00  0.00     0.008 A 
ATOM     24  C   UNL     1      -0.551   2.883  -1.649  1.00  0.00     0.008 A 
ATOM     25  C   UNL     1      -2.273   1.204  -3.013  1.00  0.00     0.021 A 
ATOM     26  C   UNL     1      -1.215   3.340  -2.772  1.00  0.00     0.021 A 
ATOM     27  C   UNL     1      -2.079   2.501  -3.453  1.00  0.00     0.041 A 
ATOM     28  Cl  UNL     1      -2.919   3.076  -4.859  1.00  0.00    -0.084 Cl
ENDBRANCH  21  22
BRANCH  21  29
ATOM     29  C   UNL     1      -0.718   1.572   1.248  1.00  0.00     0.135 A 
ATOM     30  N   UNL     1      -1.498   0.821   2.055  1.00  0.00    -0.336 N 
ATOM     31  N   UNL     1      -0.681   2.789   1.716  1.00  0.00    -0.239 NA
ATOM     32  C   UNL     1      -1.941   1.635   3.062  1.00  0.00     0.107 A 
ATOM     33  C   UNL     1      -1.810  -0.600   1.886  1.00  0.00     0.151 C 
ATOM     34  C   UNL     1      -1.423   2.857   2.831  1.00  0.00     0.131 A 
ENDBRANCH  21  29
ENDBRANCH   4  21
TORSDOF 5
