REMARK SMILES CN(C)c1ccc(/C=C(/NC(=O)c2ccccc2)C(=O)N/N=C/C=C/c2ccc(Br)cc2)cc1
REMARK SMILES IDX 19 1 20 2 21 3 9 5 8 6 7 7 4 8 34 9 5 10 33 11 6 12 2 13
REMARK SMILES IDX 1 14 3 15 10 16 11 17 12 19 13 20 18 21 14 22 17 23 15 24
REMARK SMILES IDX 16 25 22 26 23 27 24 28 25 29 26 30 32 31 27 32 31 33 28 34
REMARK SMILES IDX 29 35 30 36
REMARK H PARENT 21 4 10 18
REMARK Flexibility Score: inf
ROOT
ATOM      1  C   UNL     1      -3.731   1.695  -0.731  1.00  0.00     0.287 C 
ATOM      2  O   UNL     1      -4.784   1.082  -0.740  1.00  0.00    -0.266 OA
ATOM      3  N   UNL     1      -3.677   2.949  -1.222  1.00  0.00    -0.242 N 
ATOM      4  H   UNL     1      -2.787   3.467  -1.214  1.00  0.00     0.194 HD
ENDROOT
BRANCH   1   5
ATOM      5  C   UNL     1      -2.522   1.068  -0.185  1.00  0.00     0.109 C 
ATOM      6  C   UNL     1      -2.606  -0.126   0.451  1.00  0.00     0.040 C 
BRANCH   6   7
ATOM      7  C   UNL     1      -3.914  -0.637   0.884  1.00  0.00    -0.023 A 
ATOM      8  C   UNL     1      -6.380  -1.601   1.703  1.00  0.00     0.036 A 
ATOM      9  C   UNL     1      -6.077  -0.252   1.858  1.00  0.00     0.026 A 
ATOM     10  C   UNL     1      -5.449  -2.468   1.139  1.00  0.00     0.026 A 
ATOM     11  C   UNL     1      -4.852   0.230   1.458  1.00  0.00     0.010 A 
ATOM     12  C   UNL     1      -4.223  -1.994   0.731  1.00  0.00     0.010 A 
BRANCH   8  13
ATOM     13  N   UNL     1      -7.620  -2.086   2.115  1.00  0.00    -0.378 N 
ATOM     14  C   UNL     1      -7.941  -3.506   1.954  1.00  0.00     0.143 C 
ATOM     15  C   UNL     1      -8.601  -1.175   2.709  1.00  0.00     0.143 C 
ENDBRANCH   8  13
ENDBRANCH   6   7
BRANCH   5  16
ATOM     16  N   UNL     1      -1.283   1.703  -0.320  1.00  0.00    -0.317 N 
ATOM     17  C   UNL     1      -0.824   2.031  -1.544  1.00  0.00     0.255 C 
ATOM     18  H   UNL     1      -0.721   1.919   0.515  1.00  0.00     0.170 HD
ATOM     19  O   UNL     1      -1.441   1.692  -2.536  1.00  0.00    -0.269 OA
BRANCH  17  20
ATOM     20  C   UNL     1       0.425   2.809  -1.681  1.00  0.00     0.040 A 
ATOM     21  C   UNL     1       0.900   3.156  -2.947  1.00  0.00     0.014 A 
ATOM     22  C   UNL     1       1.133   3.205  -0.544  1.00  0.00     0.014 A 
ATOM     23  C   UNL     1       2.066   3.882  -3.068  1.00  0.00     0.001 A 
ATOM     24  C   UNL     1       2.300   3.927  -0.679  1.00  0.00     0.001 A 
ATOM     25  C   UNL     1       2.765   4.267  -1.937  1.00  0.00     0.000 A 
ENDBRANCH  17  20
ENDBRANCH   5  16
ENDBRANCH   1   5
BRANCH   3  26
ATOM     26  N   UNL     1      -4.831   3.547  -1.744  1.00  0.00    -0.181 NA
ATOM     27  C   UNL     1      -4.779   4.759  -2.219  1.00  0.00     0.133 C 
BRANCH  27  28
ATOM     28  C   UNL     1      -5.947   5.365  -2.746  1.00  0.00     0.023 C 
ATOM     29  C   UNL     1      -5.892   6.620  -3.238  1.00  0.00     0.010 C 
BRANCH  29  30
ATOM     30  C   UNL     1      -7.105   7.249  -3.786  1.00  0.00    -0.026 A 
ATOM     31  C   UNL     1      -7.052   8.550  -4.297  1.00  0.00     0.009 A 
ATOM     32  C   UNL     1      -8.314   6.546  -3.804  1.00  0.00     0.009 A 
ATOM     33  C   UNL     1      -8.192   9.133  -4.808  1.00  0.00     0.016 A 
ATOM     34  C   UNL     1      -9.447   7.144  -4.313  1.00  0.00     0.016 A 
ATOM     35  C   UNL     1      -9.387   8.433  -4.817  1.00  0.00     0.018 A 
ATOM     36  Br  UNL     1     -10.945   9.241  -5.521  1.00  0.00    -0.051 Br
ENDBRANCH  29  30
ENDBRANCH  27  28
ENDBRANCH   3  26
TORSDOF 8
