REMARK SMILES C=CCO[C@H]1[C@H](NC(=O)COC)c2ccccc2C12CC[NH+](Cc1[nH]c3c(C)cccc3c1C)CC2
REMARK SMILES IDX 21 1 20 2 19 3 36 4 35 5 18 6 17 7 16 8 15 9 14 10 13 11
REMARK SMILES IDX 6 12 5 13 22 14 23 16 24 17 28 18 27 19 26 20 29 21 32 22
REMARK SMILES IDX 25 23 30 24 31 25 33 26 34 28 4 29 3 30 2 31 1 32 7 33 8 34
REMARK SMILES IDX 9 36 10 37 11 38 12 39
REMARK H PARENT 22 15 25 27 7 35
REMARK Flexibility Score: inf
ROOT
ATOM      1  C   UNL     1       1.314   1.025  -7.378  1.00  0.00     0.263 C 
ATOM      2  C   UNL     1      -0.114   0.603  -7.020  1.00  0.00     0.076 C 
ATOM      3  C   UNL     1      -0.234   0.466  -5.505  1.00  0.00     0.035 C 
ATOM      4  C   UNL     1       0.800  -0.527  -4.980  1.00  0.00     0.076 C 
ATOM      5  C   UNL     1       2.199  -0.069  -5.403  1.00  0.00     0.263 C 
ATOM      6  C   UNL     1      -1.627   0.026  -5.123  1.00  0.00    -0.033 A 
ATOM      7  C   UNL     1      -2.449  -0.945  -5.671  1.00  0.00     0.005 A 
ATOM      8  C   UNL     1      -3.705  -1.172  -5.143  1.00  0.00     0.000 A 
ATOM      9  C   UNL     1      -4.145  -0.428  -4.064  1.00  0.00     0.000 A 
ATOM     10  C   UNL     1      -3.327   0.540  -3.516  1.00  0.00     0.006 A 
ATOM     11  C   UNL     1      -2.068   0.770  -4.043  1.00  0.00    -0.019 A 
ATOM     12  C   UNL     1      -0.997   1.758  -3.630  1.00  0.00     0.142 C 
ATOM     13  C   UNL     1      -0.033   1.837  -4.834  1.00  0.00     0.156 C 
ATOM     14  N   UNL     1       2.255  -0.001  -6.879  1.00  0.00    -0.330 N 
ATOM     15  H   UNL     1       1.984  -0.917  -7.265  1.00  0.00     0.348 HD
ENDROOT
BRANCH  14  16
ATOM     16  C   UNL     1       3.629   0.319  -7.318  1.00  0.00     0.317 C 
BRANCH  16  17
ATOM     17  C   UNL     1       4.527  -0.846  -6.987  1.00  0.00     0.074 A 
ATOM     18  C   UNL     1       7.481  -1.912  -3.860  1.00  0.00     0.046 C 
ATOM     19  C   UNL     1       6.993  -2.672  -5.066  1.00  0.00    -0.027 A 
ATOM     20  C   UNL     1       6.042  -2.108  -5.910  1.00  0.00     0.049 A 
ATOM     21  C   UNL     1       7.487  -3.930  -5.337  1.00  0.00     0.005 A 
ATOM     22  C   UNL     1       5.598  -2.833  -7.031  1.00  0.00     0.003 A 
ATOM     23  N   UNL     1       5.372  -0.905  -5.912  1.00  0.00    -0.353 N 
ATOM     24  C   UNL     1       7.046  -4.641  -6.444  1.00  0.00     0.001 A 
ATOM     25  C   UNL     1       6.113  -4.105  -7.286  1.00  0.00     0.010 A 
ATOM     26  C   UNL     1       4.612  -1.980  -7.699  1.00  0.00    -0.017 A 
ATOM     27  H   UNL     1       5.489  -0.161  -5.210  1.00  0.00     0.166 HD
ATOM     28  C   UNL     1       3.841  -2.312  -8.951  1.00  0.00     0.047 C 
ENDBRANCH  16  17
ENDBRANCH  14  16
BRANCH  13  29
ATOM     29  O   UNL     1      -0.410   2.895  -5.718  1.00  0.00    -0.371 OA
BRANCH  29  30
ATOM     30  C   UNL     1       0.224   4.143  -5.433  1.00  0.00     0.187 C 
BRANCH  30  31
ATOM     31  C   UNL     1      -0.243   5.181  -6.421  1.00  0.00    -0.007 C 
ATOM     32  C   UNL     1      -0.585   6.375  -6.004  1.00  0.00     0.006 C 
ENDBRANCH  30  31
ENDBRANCH  29  30
ENDBRANCH  13  29
BRANCH  12  33
ATOM     33  N   UNL     1      -0.288   1.272  -2.443  1.00  0.00    -0.345 N 
ATOM     34  C   UNL     1      -0.742   1.585  -1.213  1.00  0.00     0.246 C 
ATOM     35  H   UNL     1       0.556   0.692  -2.549  1.00  0.00     0.164 HD
ATOM     36  O   UNL     1      -1.736   2.268  -1.088  1.00  0.00    -0.272 OA
BRANCH  34  37
ATOM     37  C   UNL     1      -0.013   1.086   0.008  1.00  0.00     0.259 C 
BRANCH  37  38
ATOM     38  O   UNL     1      -0.682   1.547   1.184  1.00  0.00    -0.375 OA
ATOM     39  C   UNL     1      -0.068   1.127   2.404  1.00  0.00     0.195 C 
ENDBRANCH  37  38
ENDBRANCH  34  37
ENDBRANCH  12  33
TORSDOF 8
