REMARK SMILES C[C@@H](OC(=O)c1c[nH]c2cc(Br)c(Br)cc12)C(=O)NC(=O)NC(C)(C)C
REMARK SMILES IDX 1 1 2 2 17 3 18 4 19 5 20 6 21 8 22 9 23 11 24 12 25 13
REMARK SMILES IDX 26 14 3 15 4 16 5 17 6 18 16 19 7 20 9 21 15 22 8 23 10 24
REMARK SMILES IDX 13 25 11 27 14 28 12 29
REMARK H PARENT 19 7 22 10 8 26
REMARK Flexibility Score: inf
ROOT
ATOM      1  C   UNL     1      -3.912  -1.651  -1.412  1.00  0.00     0.064 C 
ATOM      2  C   UNL     1      -3.510  -1.328   0.029  1.00  0.00     0.262 C 
ENDROOT
BRANCH   2   3
ATOM      3  C   UNL     1      -4.685  -0.724   0.754  1.00  0.00     0.268 C 
ATOM      4  O   UNL     1      -4.633   0.424   1.141  1.00  0.00    -0.270 OA
ATOM      5  N   UNL     1      -5.793  -1.459   0.973  1.00  0.00    -0.275 N 
ATOM      6  C   UNL     1      -6.844  -0.919   1.622  1.00  0.00     0.321 C 
ATOM      7  H   UNL     1      -5.837  -2.434   0.644  1.00  0.00     0.174 HD
ATOM      8  O   UNL     1      -6.792   0.232   2.010  1.00  0.00    -0.248 OA
ATOM      9  N   UNL     1      -7.952  -1.655   1.840  1.00  0.00    -0.333 N 
ATOM     10  H   UNL     1      -7.995  -2.630   1.512  1.00  0.00     0.165 HD
BRANCH   9  11
ATOM     11  C   UNL     1      -9.093  -1.067   2.546  1.00  0.00     0.033 C 
ATOM     12  C   UNL     1      -9.604   0.147   1.767  1.00  0.00     0.034 C 
ATOM     13  C   UNL     1     -10.211  -2.106   2.660  1.00  0.00     0.034 C 
ATOM     14  C   UNL     1      -8.658  -0.629   3.946  1.00  0.00     0.034 C 
ENDBRANCH   9  11
ENDBRANCH   2   3
BRANCH   2  15
ATOM     15  O   UNL     1      -2.407  -0.384   0.024  1.00  0.00    -0.449 OA
BRANCH  15  16
ATOM     16  C   UNL     1      -1.161  -0.898   0.008  1.00  0.00     0.341 C 
ATOM     17  O   UNL     1      -1.001  -2.104  -0.000  1.00  0.00    -0.246 OA
BRANCH  16  18
ATOM     18  C   UNL     1       0.002  -0.004   0.002  1.00  0.00     0.085 A 
ATOM     19  C   UNL     1       1.422  -0.402  -0.014  1.00  0.00     0.015 A 
ATOM     20  C   UNL     1      -0.016   1.361   0.009  1.00  0.00     0.099 A 
ATOM     21  C   UNL     1       2.157   0.794  -0.014  1.00  0.00     0.047 A 
ATOM     22  C   UNL     1       2.083  -1.628  -0.027  1.00  0.00     0.028 A 
ATOM     23  N   UNL     1       1.252   1.836   0.000  1.00  0.00    -0.360 N 
ATOM     24  C   UNL     1       3.546   0.742  -0.028  1.00  0.00     0.043 A 
ATOM     25  C   UNL     1       3.461  -1.661  -0.040  1.00  0.00     0.032 A 
ATOM     26  H   UNL     1       1.505   2.834   0.003  1.00  0.00     0.166 HD
ATOM     27  C   UNL     1       4.189  -0.478  -0.041  1.00  0.00     0.034 A 
ATOM     28  Br  UNL     1       4.363  -3.322  -0.058  1.00  0.00    -0.050 Br
ATOM     29  Br  UNL     1       6.079  -0.542  -0.058  1.00  0.00    -0.050 Br
ENDBRANCH  16  18
ENDBRANCH  15  16
ENDBRANCH   2  15
TORSDOF 5
