REMARK SMILES O=C(COC(=O)c1c(NC(=O)C2CCCCC2)sc2c1CCC2)NC1CC[NH+](C2CC2)CC1
REMARK SMILES IDX 4 1 5 2 6 3 7 4 8 5 18 6 19 7 20 8 23 9 21 10 22 11 9 12
REMARK SMILES IDX 10 13 11 14 12 16 15 17 16 18 14 19 17 20 13 21 3 22 2 23
REMARK SMILES IDX 1 24 24 25 25 27 33 28 26 29 32 30 27 31 28 32 29 34 31 35
REMARK SMILES IDX 30 36
REMARK H PARENT 9 15 24 26 28 33
REMARK Flexibility Score: inf
ROOT
ATOM      1  O   UNL     1       3.553   1.878  -0.022  1.00  0.00    -0.452 OA
ENDROOT
BRANCH   1   2
ATOM      2  C   UNL     1       4.806   1.380  -0.036  1.00  0.00     0.341 C 
ATOM      3  O   UNL     1       4.982   0.176  -0.045  1.00  0.00    -0.246 OA
BRANCH   2   4
ATOM      4  C   UNL     1       5.955   2.288  -0.043  1.00  0.00     0.098 A 
ATOM      5  C   UNL     1       6.507   2.740  -1.230  1.00  0.00     0.110 A 
ATOM      6  S   UNL     1       7.804   3.756  -0.700  1.00  0.00    -0.122 S 
ATOM      7  C   UNL     1       7.611   3.579   1.057  1.00  0.00     0.011 A 
ATOM      8  C   UNL     1       6.559   2.755   1.205  1.00  0.00    -0.017 A 
ATOM      9  C   UNL     1       8.183   4.008   2.381  1.00  0.00     0.047 C 
ATOM     10  C   UNL     1       6.316   2.543   2.700  1.00  0.00     0.038 C 
ATOM     11  C   UNL     1       7.616   2.992   3.397  1.00  0.00     0.010 C 
BRANCH   5  12
ATOM     12  N   UNL     1       6.115   2.449  -2.528  1.00  0.00    -0.317 N 
ATOM     13  C   UNL     1       6.780   2.988  -3.569  1.00  0.00     0.228 C 
ATOM     14  O   UNL     1       7.721   3.727  -3.370  1.00  0.00    -0.274 OA
ATOM     15  H   UNL     1       5.316   1.821  -2.696  1.00  0.00     0.170 HD
BRANCH  13  16
ATOM     16  C   UNL     1       6.354   2.672  -4.979  1.00  0.00     0.079 C 
ATOM     17  C   UNL     1       6.936   1.577  -7.634  1.00  0.00     0.000 C 
ATOM     18  C   UNL     1       6.023   0.843  -6.649  1.00  0.00     0.001 C 
ATOM     19  C   UNL     1       6.835   3.085  -7.396  1.00  0.00     0.001 C 
ATOM     20  C   UNL     1       6.455   1.164  -5.217  1.00  0.00     0.013 C 
ATOM     21  C   UNL     1       7.267   3.406  -5.964  1.00  0.00     0.013 C 
ENDBRANCH  13  16
ENDBRANCH   5  12
ENDBRANCH   2   4
ENDBRANCH   1   2
BRANCH   1  22
ATOM     22  C   UNL     1       2.462   0.920  -0.017  1.00  0.00     0.333 C 
BRANCH  22  23
ATOM     23  C   UNL     1       1.147   1.655   0.000  1.00  0.00     0.258 C 
ATOM     24  O   UNL     1       1.130   2.868   0.007  1.00  0.00    -0.271 OA
ATOM     25  N   UNL     1      -0.011   0.966   0.007  1.00  0.00    -0.350 N 
ATOM     26  H   UNL     1       0.003  -0.064   0.006  1.00  0.00     0.163 HD
BRANCH  25  27
ATOM     27  C   UNL     1      -1.290   1.681   0.017  1.00  0.00     0.093 C 
ATOM     28  C   UNL     1      -2.378   0.793  -0.592  1.00  0.00     0.086 C 
ATOM     29  C   UNL     1      -1.672   2.026   1.459  1.00  0.00     0.086 C 
ATOM     30  C   UNL     1      -3.722   1.521  -0.524  1.00  0.00     0.264 C 
ATOM     31  C   UNL     1      -3.037   2.718   1.469  1.00  0.00     0.264 C 
ATOM     32  N   UNL     1      -4.043   1.828   0.876  1.00  0.00    -0.332 N 
ATOM     33  H   UNL     1      -4.028   0.943   1.403  1.00  0.00     0.348 HD
BRANCH  32  34
ATOM     34  C   UNL     1      -5.389   2.403   0.994  1.00  0.00     0.184 C 
ATOM     35  C   UNL     1      -5.922   2.673   2.402  1.00  0.00     0.071 C 
ATOM     36  C   UNL     1      -5.501   3.840   1.506  1.00  0.00     0.071 C 
ENDBRANCH  32  34
ENDBRANCH  25  27
ENDBRANCH  22  23
ENDBRANCH   1  22
TORSDOF 8
