REMARK SMILES CCC(CC)[NH+]1CCN(c2ccc3nc(C(=O)NCc4cccc(Cl)c4)ccc3n2)CC1
REMARK SMILES IDX 10 1 11 2 12 3 13 4 29 5 30 6 28 7 27 8 15 9 14 10 9 11 6 12
REMARK SMILES IDX 32 13 7 14 31 16 8 17 3 18 2 19 1 20 4 21 5 22 16 23 17 24
REMARK SMILES IDX 18 25 19 27 20 28 26 29 21 30 24 31 22 32 23 33 25 34
REMARK H PARENT 6 15 18 26
REMARK Flexibility Score: inf
ROOT
ATOM      1  C   UNL     1      -2.932  -0.982   9.678  1.00  0.00     0.129 A 
ATOM      2  C   UNL     1      -1.863  -0.088   9.847  1.00  0.00     0.049 A 
ATOM      3  C   UNL     1      -0.895   0.002   8.895  1.00  0.00     0.034 A 
ATOM      4  C   UNL     1      -1.000  -0.822   7.750  1.00  0.00     0.090 A 
ATOM      5  C   UNL     1      -2.106  -1.704   7.642  1.00  0.00     0.091 A 
ATOM      6  N   UNL     1      -3.026  -1.748   8.610  1.00  0.00    -0.229 NA
ATOM      7  C   UNL     1      -2.213  -2.526   6.503  1.00  0.00     0.033 A 
ATOM      8  C   UNL     1      -1.246  -2.432   5.545  1.00  0.00     0.036 A 
ATOM      9  C   UNL     1      -0.176  -1.542   5.716  1.00  0.00     0.129 A 
ATOM     10  N   UNL     1      -0.084  -0.777   6.788  1.00  0.00    -0.241 NA
ENDROOT
BRANCH   1  11
ATOM     11  N   UNL     1      -3.910  -1.061  10.656  1.00  0.00    -0.345 N 
ATOM     12  N   UNL     1      -5.447  -2.360  12.670  1.00  0.00    -0.330 N 
ATOM     13  C   UNL     1      -4.420  -1.372  13.030  1.00  0.00     0.284 C 
ATOM     14  C   UNL     1      -6.036  -2.049  11.360  1.00  0.00     0.284 C 
ATOM     15  H   UNL     1      -4.992  -3.281  12.603  1.00  0.00     0.348 HD
ATOM     16  C   UNL     1      -3.321  -1.372  11.966  1.00  0.00     0.179 C 
ATOM     17  C   UNL     1      -4.936  -2.049  10.296  1.00  0.00     0.179 C 
BRANCH  12  18
ATOM     18  C   UNL     1      -6.484  -2.444  13.707  1.00  0.00     0.183 C 
BRANCH  18  19
ATOM     19  C   UNL     1      -7.521  -1.341  13.482  1.00  0.00     0.061 C 
ATOM     20  C   UNL     1      -6.867   0.025  13.696  1.00  0.00     0.010 C 
ENDBRANCH  18  19
BRANCH  18  21
ATOM     21  C   UNL     1      -7.168  -3.810  13.635  1.00  0.00     0.061 C 
ATOM     22  C   UNL     1      -6.145  -4.909  13.929  1.00  0.00     0.010 C 
ENDBRANCH  18  21
ENDBRANCH  12  18
ENDBRANCH   1  11
BRANCH   9  23
ATOM     23  C   UNL     1       0.870  -1.455   4.671  1.00  0.00     0.270 C 
ATOM     24  O   UNL     1       0.798  -2.154   3.679  1.00  0.00    -0.268 OA
ATOM     25  N   UNL     1       1.902  -0.600   4.819  1.00  0.00    -0.347 N 
ATOM     26  H   UNL     1       1.963  -0.008   5.660  1.00  0.00     0.164 HD
BRANCH  25  27
ATOM     27  C   UNL     1       2.936  -0.514   3.785  1.00  0.00     0.152 C 
BRANCH  27  28
ATOM     28  C   UNL     1       3.967   0.507   4.190  1.00  0.00    -0.027 A 
ATOM     29  C   UNL     1       3.810   1.831   3.825  1.00  0.00     0.026 A 
ATOM     30  C   UNL     1       5.068   0.121   4.933  1.00  0.00     0.005 A 
ATOM     31  C   UNL     1       4.760   2.767   4.192  1.00  0.00     0.041 A 
ATOM     32  C   UNL     1       6.017   1.057   5.300  1.00  0.00     0.002 A 
ATOM     33  C   UNL     1       5.864   2.380   4.930  1.00  0.00     0.020 A 
ATOM     34  Cl  UNL     1       4.566   4.429   3.727  1.00  0.00    -0.084 Cl
ENDBRANCH  27  28
ENDBRANCH  25  27
ENDBRANCH   9  23
TORSDOF 7
