REMARK SMILES COc1ccc(C)cc1NC(=O)[C@@H](c1ccccc1)N1CCN(Cc2nc3ccccc3s2)CC1
REMARK SMILES IDX 13 1 11 2 10 3 12 5 9 6 7 7 6 8 8 9 5 10 4 11 3 12 2 13 1 14
REMARK SMILES IDX 14 15 19 16 15 17 18 18 16 19 17 20 20 21 35 22 21 23 34 24
REMARK SMILES IDX 22 25 23 26 24 27 25 28 33 29 26 30 32 31 27 32 31 33 28 34
REMARK SMILES IDX 30 35 29 36
REMARK H PARENT 10 4
REMARK Flexibility Score: inf
ROOT
ATOM      1  C   UNL     1      -1.449   9.950  -4.889  1.00  0.00     0.177 C 
ENDROOT
BRANCH   1   2
ATOM      2  C   UNL     1      -1.725  11.432  -4.880  1.00  0.00     0.246 C 
ATOM      3  N   UNL     1      -1.887  12.094  -6.043  1.00  0.00    -0.321 N 
ATOM      4  H   UNL     1      -1.754  11.602  -6.938  1.00  0.00     0.170 HD
ATOM      5  O   UNL     1      -1.802  12.028  -3.827  1.00  0.00    -0.272 OA
BRANCH   3   6
ATOM      6  C   UNL     1      -2.235  13.451  -6.033  1.00  0.00     0.084 A 
ATOM      7  C   UNL     1      -1.571  16.531  -3.946  1.00  0.00     0.044 C 
ATOM      8  C   UNL     1      -2.097  15.625  -5.030  1.00  0.00    -0.049 A 
ATOM      9  C   UNL     1      -1.752  14.286  -5.037  1.00  0.00     0.033 A 
ATOM     10  C   UNL     1      -2.923  16.134  -6.015  1.00  0.00     0.007 A 
ATOM     11  C   UNL     1      -3.408  15.308  -7.011  1.00  0.00     0.049 A 
ATOM     12  C   UNL     1      -3.062  13.966  -7.029  1.00  0.00     0.142 A 
BRANCH  12  13
ATOM     13  O   UNL     1      -3.534  13.154  -8.011  1.00  0.00    -0.495 OA
ATOM     14  C   UNL     1      -4.377  13.751  -8.998  1.00  0.00     0.278 C 
ENDBRANCH  12  13
ENDBRANCH   3   6
ENDBRANCH   1   2
BRANCH   1  15
ATOM     15  C   UNL     1      -0.172   9.682  -5.641  1.00  0.00    -0.021 A 
ATOM     16  C   UNL     1      -0.220   9.246  -6.952  1.00  0.00     0.006 A 
ATOM     17  C   UNL     1       1.049   9.876  -5.022  1.00  0.00     0.006 A 
ATOM     18  C   UNL     1       0.952   9.000  -7.643  1.00  0.00     0.000 A 
ATOM     19  C   UNL     1       2.221   9.625  -5.711  1.00  0.00     0.000 A 
ATOM     20  C   UNL     1       2.173   9.189  -7.022  1.00  0.00     0.000 A 
ENDBRANCH   1  15
BRANCH   1  21
ATOM     21  N   UNL     1      -1.314   9.469  -3.507  1.00  0.00    -0.286 NA
ATOM     22  C   UNL     1      -0.729   8.121  -3.474  1.00  0.00     0.101 C 
ATOM     23  C   UNL     1      -2.609   9.495  -2.812  1.00  0.00     0.101 C 
ATOM     24  C   UNL     1      -0.532   7.690  -2.019  1.00  0.00     0.100 C 
ATOM     25  C   UNL     1      -2.412   9.064  -1.357  1.00  0.00     0.100 C 
ATOM     26  N   UNL     1      -1.826   7.716  -1.323  1.00  0.00    -0.294 NA
BRANCH  26  27
ATOM     27  C   UNL     1      -1.692   7.235   0.058  1.00  0.00     0.152 C 
BRANCH  27  28
ATOM     28  C   UNL     1      -1.324   5.774   0.048  1.00  0.00     0.108 A 
ATOM     29  S   UNL     1      -2.381   4.397   0.053  1.00  0.00    -0.117 S 
ATOM     30  N   UNL     1      -0.135   5.239   0.032  1.00  0.00    -0.240 NA
ATOM     31  C   UNL     1      -1.129   3.139   0.033  1.00  0.00     0.055 A 
ATOM     32  C   UNL     1       0.059   3.904   0.024  1.00  0.00     0.082 A 
ATOM     33  C   UNL     1      -1.121   1.765   0.021  1.00  0.00     0.021 A 
ATOM     34  C   UNL     1       1.273   3.181   0.007  1.00  0.00     0.030 A 
ATOM     35  C   UNL     1       0.088   1.095   0.010  1.00  0.00     0.002 A 
ATOM     36  C   UNL     1       1.270   1.821   0.001  1.00  0.00     0.002 A 
ENDBRANCH  27  28
ENDBRANCH  26  27
ENDBRANCH   1  21
TORSDOF 7
