REMARK SMILES Cc1nc2sc(C(=O)OCCN(C)C(=O)c3sc4nc(C)c(C)c(C)c4c3N)c(N)c2c(C)c1C
REMARK SMILES IDX 11 1 12 2 13 3 14 4 15 5 16 6 23 7 22 8 20 9 24 10 19 11
REMARK SMILES IDX 21 12 26 13 25 14 18 15 27 16 17 17 28 18 10 21 9 22 7 23
REMARK SMILES IDX 8 24 6 25 5 26 29 27 4 28 31 29 3 30 32 31 2 32 34 33 33 34
REMARK SMILES IDX 1 35 35 36 30 37
REMARK H PARENT 28 19 28 20 30 38 30 39
REMARK Flexibility Score: inf
ROOT
ATOM      1  C   UNL     1      -6.426  -0.767  -0.087  1.00  0.00     0.161 C 
ENDROOT
BRANCH   1   2
ATOM      2  N   UNL     1      -5.972  -0.183  -1.351  1.00  0.00    -0.338 N 
ATOM      3  C   UNL     1      -6.011  -0.977  -2.582  1.00  0.00     0.147 C 
BRANCH   2   4
ATOM      4  C   UNL     1      -5.517   1.085  -1.383  1.00  0.00     0.266 C 
ATOM      5  O   UNL     1      -5.391   1.713  -0.346  1.00  0.00    -0.268 OA
BRANCH   4   6
ATOM      6  C   UNL     1      -5.186   1.690  -2.622  1.00  0.00     0.118 A 
ATOM      7  C   UNL     1      -3.010   5.976  -6.574  1.00  0.00     0.046 C 
ATOM      8  C   UNL     1      -3.631   4.707  -6.049  1.00  0.00    -0.026 A 
ATOM      9  C   UNL     1      -4.063   3.733  -6.936  1.00  0.00     0.042 A 
ATOM     10  C   UNL     1      -3.767   4.523  -4.693  1.00  0.00    -0.034 A 
ATOM     11  N   UNL     1      -4.609   2.618  -6.490  1.00  0.00    -0.242 NA
ATOM     12  C   UNL     1      -3.907   3.949  -8.419  1.00  0.00     0.067 C 
ATOM     13  C   UNL     1      -4.353   3.324  -4.218  1.00  0.00     0.038 A 
ATOM     14  C   UNL     1      -3.300   5.581  -3.727  1.00  0.00     0.045 C 
ATOM     15  C   UNL     1      -4.760   2.395  -5.203  1.00  0.00     0.126 A 
ATOM     16  C   UNL     1      -4.602   2.917  -2.844  1.00  0.00     0.065 A 
ATOM     17  S   UNL     1      -5.434   1.046  -4.265  1.00  0.00    -0.108 S 
BRANCH  16  18
ATOM     18  N   UNL     1      -4.256   3.742  -1.783  1.00  0.00    -0.397 N 
ATOM     19  H   UNL     1      -3.818   4.654  -1.975  1.00  0.00     0.156 HD
ATOM     20  H   UNL     1      -4.435   3.448  -0.813  1.00  0.00     0.156 HD
ENDBRANCH  16  18
ENDBRANCH   4   6
ENDBRANCH   2   4
ENDBRANCH   1   2
BRANCH   1  21
ATOM     21  C   UNL     1      -5.247  -1.443   0.615  1.00  0.00     0.254 C 
BRANCH  21  22
ATOM     22  O   UNL     1      -4.281  -0.456   0.981  1.00  0.00    -0.460 OA
BRANCH  22  23
ATOM     23  C   UNL     1      -3.171  -0.890   1.615  1.00  0.00     0.350 C 
ATOM     24  O   UNL     1      -3.029  -2.076   1.850  1.00  0.00    -0.245 OA
BRANCH  23  25
ATOM     25  C   UNL     1      -2.173   0.033   2.006  1.00  0.00     0.138 A 
ATOM     26  S   UNL     1      -2.151   1.800   1.776  1.00  0.00    -0.106 S 
ATOM     27  C   UNL     1      -0.984  -0.218   2.656  1.00  0.00     0.067 A 
ATOM     28  C   UNL     1      -0.588   2.167   2.534  1.00  0.00     0.126 A 
ATOM     29  C   UNL     1      -0.110   0.905   2.954  1.00  0.00     0.038 A 
ATOM     30  N   UNL     1       0.086   3.280   2.730  1.00  0.00    -0.242 NA
ATOM     31  C   UNL     1       1.149   0.899   3.606  1.00  0.00    -0.034 A 
ATOM     32  C   UNL     1       1.257   3.277   3.335  1.00  0.00     0.042 A 
ATOM     33  C   UNL     1       1.813   2.089   3.786  1.00  0.00    -0.026 A 
ATOM     34  C   UNL     1       1.751  -0.394   4.093  1.00  0.00     0.045 C 
ATOM     35  C   UNL     1       1.996   4.575   3.540  1.00  0.00     0.067 C 
ATOM     36  C   UNL     1       3.152   2.103   4.476  1.00  0.00     0.046 C 
BRANCH  27  37
ATOM     37  N   UNL     1      -0.629  -1.510   3.015  1.00  0.00    -0.397 N 
ATOM     38  H   UNL     1      -1.265  -2.289   2.792  1.00  0.00     0.156 HD
ATOM     39  H   UNL     1       0.261  -1.691   3.501  1.00  0.00     0.156 HD
ENDBRANCH  27  37
ENDBRANCH  23  25
ENDBRANCH  22  23
ENDBRANCH  21  22
ENDBRANCH   1  21
TORSDOF 9
