REMARK SMILES CC1(C)C[C@H](NC(=O)c2cccs2)[C@@]2(CCC(=O)NCCc3c[nH]c4ccccc34)CC[C@](C)(O)C[C@@H]12
REMARK SMILES IDX 16 1 15 2 14 3 1 4 2 5 37 6 4 7 3 8 36 9 5 10 31 11 33 12
REMARK SMILES IDX 32 13 34 14 6 15 7 16 8 18 9 19 13 20 10 21 12 22 11 23
REMARK SMILES IDX 35 24 17 26 18 27 19 28 20 30 21 31 22 32 30 33 23 34 25 35
REMARK SMILES IDX 29 36 24 37 26 38 28 39 27 41
REMARK H PARENT 6 17 35 25 19 29 24 40
REMARK Flexibility Score: inf
ROOT
ATOM      1  C   UNL     1      -0.081   5.869  -1.001  1.00  0.00     0.100 C 
ENDROOT
BRANCH   1   2
ATOM      2  C   UNL     1       0.167   6.143   0.484  1.00  0.00     0.019 C 
BRANCH   2   3
ATOM      3  C   UNL     1       1.660   6.379   0.717  1.00  0.00    -0.005 C 
ATOM      4  C   UNL     1       2.817   7.377  -2.626  1.00  0.00     0.011 C 
ATOM      5  C   UNL     1       3.106   6.875  -1.210  1.00  0.00    -0.030 C 
ATOM      6  C   UNL     1       2.096   7.476  -0.215  1.00  0.00     0.006 C 
ATOM      7  C   UNL     1       2.900   5.349  -1.132  1.00  0.00     0.032 C 
ATOM      8  C   UNL     1       4.534   7.240  -0.800  1.00  0.00     0.011 C 
ATOM      9  C   UNL     1       2.576   8.783   0.322  1.00  0.00     0.039 C 
ATOM     10  C   UNL     1       2.396   5.090   0.302  1.00  0.00     0.089 C 
ATOM     11  C   UNL     1       1.855   6.637   2.193  1.00  0.00     0.012 C 
ATOM     12  C   UNL     1       2.694   8.915   1.822  1.00  0.00     0.062 C 
ATOM     13  C   UNL     1       1.606   8.104   2.525  1.00  0.00     0.035 C 
ATOM     14  C   UNL     1       4.067   8.406   2.266  1.00  0.00     0.042 C 
BRANCH  10  15
ATOM     15  N   UNL     1       1.474   3.952   0.318  1.00  0.00    -0.348 N 
ATOM     16  C   UNL     1       1.935   2.715   0.591  1.00  0.00     0.261 C 
ATOM     17  H   UNL     1       0.473   4.097   0.120  1.00  0.00     0.164 HD
ATOM     18  O   UNL     1       3.117   2.544   0.824  1.00  0.00    -0.268 OA
BRANCH  16  19
ATOM     19  C   UNL     1       1.012   1.577   0.607  1.00  0.00     0.092 A 
ATOM     20  S   UNL     1      -0.746   1.549   0.303  1.00  0.00    -0.139 S 
ATOM     21  C   UNL     1       1.278   0.240   0.861  1.00  0.00     0.025 A 
ATOM     22  C   UNL     1      -1.021  -0.149   0.519  1.00  0.00     0.065 A 
ATOM     23  C   UNL     1       0.216  -0.629   0.811  1.00  0.00     0.012 A 
ENDBRANCH  16  19
ENDBRANCH  10  15
BRANCH  12  24
ATOM     24  O   UNL     1       2.562  10.291   2.185  1.00  0.00    -0.390 OA
ATOM     25  H   UNL     1       1.679  10.630   1.893  1.00  0.00     0.211 HD
ENDBRANCH  12  24
ENDBRANCH   2   3
ENDBRANCH   1   2
BRANCH   1  26
ATOM     26  C   UNL     1      -1.530   5.512  -1.211  1.00  0.00     0.220 C 
ATOM     27  O   UNL     1      -2.290   5.480  -0.267  1.00  0.00    -0.275 OA
ATOM     28  N   UNL     1      -1.981   5.228  -2.449  1.00  0.00    -0.356 N 
ATOM     29  H   UNL     1      -1.335   5.254  -3.251  1.00  0.00     0.163 HD
BRANCH  28  30
ATOM     30  C   UNL     1      -3.389   4.881  -2.654  1.00  0.00     0.120 C 
BRANCH  30  31
ATOM     31  C   UNL     1      -3.637   4.606  -4.138  1.00  0.00     0.059 C 
BRANCH  31  32
ATOM     32  C   UNL     1      -5.086   4.249  -4.348  1.00  0.00    -0.021 A 
ATOM     33  C   UNL     1      -6.196   5.186  -4.537  1.00  0.00     0.003 A 
ATOM     34  C   UNL     1      -5.603   3.012  -4.405  1.00  0.00     0.087 A 
ATOM     35  C   UNL     1      -7.349   4.396  -4.693  1.00  0.00     0.046 A 
ATOM     36  C   UNL     1      -6.293   6.578  -4.583  1.00  0.00     0.010 A 
ATOM     37  N   UNL     1      -6.955   3.080  -4.604  1.00  0.00    -0.361 N 
ATOM     38  C   UNL     1      -8.578   5.017  -4.893  1.00  0.00     0.026 A 
ATOM     39  C   UNL     1      -7.510   7.167  -4.780  1.00  0.00     0.001 A 
ATOM     40  H   UNL     1      -7.585   2.268  -4.677  1.00  0.00     0.166 HD
ATOM     41  C   UNL     1      -8.651   6.392  -4.935  1.00  0.00     0.002 A 
ENDBRANCH  31  32
ENDBRANCH  30  31
ENDBRANCH  28  30
ENDBRANCH   1  26
TORSDOF 9
