REMARK SMILES Cc1cccc(C)c1-n1nnnc1C1([NH2+]CCc2c(C)[nH]c3c(Cl)ccc(Cl)c23)CCCCC1
REMARK SMILES IDX 15 1 14 4 34 5 30 6 33 7 31 8 32 9 13 10 9 11 10 12 11 13
REMARK SMILES IDX 12 14 8 15 1 16 2 17 3 18 6 19 4 20 5 21 7 22 16 23 17 24
REMARK SMILES IDX 18 25 29 26 19 27 22 28 27 29 21 30 20 31 23 32 26 33 28 34
REMARK SMILES IDX 25 36 24 37
REMARK H PARENT 15 2 15 3 21 35
REMARK Flexibility Score: inf
ROOT
ATOM      1  N   UNL     1       1.068  -1.665  -2.115  1.00  0.00    -0.335 N 
ATOM      2  H   UNL     1       1.337  -2.596  -2.466  1.00  0.00     0.347 HD
ATOM      3  H   UNL     1       1.297  -0.958  -2.827  1.00  0.00     0.347 HD
ENDROOT
BRANCH   1   4
ATOM      4  C   UNL     1       1.815  -1.373  -0.877  1.00  0.00     0.158 C 
ATOM      5  C   UNL     1       3.312  -1.544  -1.143  1.00  0.00     0.077 C 
ATOM      6  C   UNL     1       1.380  -2.338   0.227  1.00  0.00     0.077 C 
ATOM      7  C   UNL     1       3.591  -2.983  -1.584  1.00  0.00     0.007 C 
ATOM      8  C   UNL     1       1.658  -3.777  -0.213  1.00  0.00     0.007 C 
ATOM      9  C   UNL     1       3.155  -3.948  -0.479  1.00  0.00     0.001 C 
BRANCH   4  10
ATOM     10  C   UNL     1       1.541   0.044  -0.443  1.00  0.00     0.217 A 
ATOM     11  N   UNL     1       1.948   0.622   0.707  1.00  0.00    -0.191 N 
ATOM     12  N   UNL     1       1.452   1.936   0.656  1.00  0.00    -0.040 NA
ATOM     13  N   UNL     1       0.816   2.048  -0.460  1.00  0.00    -0.023 NA
ATOM     14  N   UNL     1       0.864   0.941  -1.110  1.00  0.00    -0.107 NA
BRANCH  11  15
ATOM     15  C   UNL     1       2.706   0.037   1.733  1.00  0.00     0.075 A 
ATOM     16  C   UNL     1       0.565  -0.619   2.864  1.00  0.00     0.047 C 
ATOM     17  C   UNL     1       2.070  -0.578   2.803  1.00  0.00    -0.025 A 
ATOM     18  C   UNL     1       2.818  -1.158   3.809  1.00  0.00     0.005 A 
ATOM     19  C   UNL     1       4.093   0.077   1.683  1.00  0.00    -0.025 A 
ATOM     20  C   UNL     1       4.200  -1.116   3.756  1.00  0.00     0.001 A 
ATOM     21  C   UNL     1       4.836  -0.499   2.694  1.00  0.00     0.005 A 
ATOM     22  C   UNL     1       4.787   0.749   0.526  1.00  0.00     0.047 C 
ENDBRANCH  11  15
ENDBRANCH   4  10
ENDBRANCH   1   4
BRANCH   1  23
ATOM     23  C   UNL     1      -0.384  -1.643  -1.854  1.00  0.00     0.266 C 
BRANCH  23  24
ATOM     24  C   UNL     1      -1.133  -1.835  -3.174  1.00  0.00     0.099 C 
BRANCH  24  25
ATOM     25  C   UNL     1      -2.618  -1.814  -2.916  1.00  0.00    -0.013 A 
ATOM     26  C   UNL     1      -3.466  -2.969  -2.610  1.00  0.00     0.023 A 
ATOM     27  C   UNL     1      -3.416  -0.734  -2.929  1.00  0.00     0.016 A 
ATOM     28  C   UNL     1      -4.768  -2.464  -2.446  1.00  0.00     0.066 A 
ATOM     29  C   UNL     1      -3.223  -4.336  -2.453  1.00  0.00     0.050 A 
ATOM     30  N   UNL     1      -4.704  -1.103  -2.651  1.00  0.00    -0.357 N 
ATOM     31  C   UNL     1      -2.960   0.675  -3.209  1.00  0.00     0.064 C 
ATOM     32  C   UNL     1      -5.807  -3.337  -2.140  1.00  0.00     0.065 A 
ATOM     33  C   UNL     1      -4.266  -5.183  -2.149  1.00  0.00     0.023 A 
ATOM     34  Cl  UNL     1      -1.617  -4.965  -2.645  1.00  0.00    -0.084 Cl
ATOM     35  H   UNL     1      -5.506  -0.459  -2.601  1.00  0.00     0.166 HD
ATOM     36  C   UNL     1      -5.553  -4.684  -1.994  1.00  0.00     0.024 A 
ATOM     37  Cl  UNL     1      -7.422  -2.732  -1.943  1.00  0.00    -0.082 Cl
ENDBRANCH  24  25
ENDBRANCH  23  24
ENDBRANCH   1  23
TORSDOF 6
