REMARK SMILES CCCn1nc(C(=O)NC[C@H](c2cccs2)c2c[nH]c3ccccc23)c2ccccc2c1=O
REMARK SMILES IDX 7 1 8 2 9 3 6 5 4 6 5 7 32 8 33 9 31 10 26 11 30 12 27 13
REMARK SMILES IDX 29 14 28 15 3 16 2 17 1 18 10 19 11 20 12 21 16 22 13 23
REMARK SMILES IDX 15 24 14 25 17 26 25 27 18 28 20 29 24 30 19 31 21 32 23 33
REMARK SMILES IDX 22 35
REMARK H PARENT 9 4 19 34
REMARK Flexibility Score: inf
ROOT
ATOM      1  C   UNL     1       6.489   4.726   2.299  1.00  0.00     0.272 C 
ATOM      2  O   UNL     1       5.990   5.402   3.178  1.00  0.00    -0.267 OA
ATOM      3  N   UNL     1       5.729   4.275   1.282  1.00  0.00    -0.350 N 
ATOM      4  H   UNL     1       6.152   3.702   0.538  1.00  0.00     0.163 HD
ENDROOT
BRANCH   1   5
ATOM      5  C   UNL     1       7.928   4.400   2.346  1.00  0.00     0.156 A 
ATOM      6  N   UNL     1       9.711   3.346   1.370  1.00  0.00    -0.229 N 
ATOM      7  N   UNL     1       8.475   3.672   1.403  1.00  0.00    -0.164 NA
ATOM      8  C   UNL     1      10.604   3.717   2.310  1.00  0.00     0.274 A 
ATOM      9  O   UNL     1      11.771   3.377   2.229  1.00  0.00    -0.267 OA
ATOM     10  C   UNL     1      10.137   4.539   3.435  1.00  0.00     0.051 A 
ATOM     11  C   UNL     1       8.768   4.894   3.450  1.00  0.00     0.020 A 
ATOM     12  C   UNL     1      10.978   4.974   4.454  1.00  0.00     0.014 A 
ATOM     13  C   UNL     1       8.266   5.667   4.491  1.00  0.00     0.011 A 
ATOM     14  C   UNL     1      10.460   5.743   5.474  1.00  0.00     0.001 A 
ATOM     15  C   UNL     1       9.115   6.087   5.492  1.00  0.00     0.001 A 
BRANCH   6  16
ATOM     16  C   UNL     1      10.182   2.526   0.251  1.00  0.00     0.148 C 
BRANCH  16  17
ATOM     17  C   UNL     1      10.051   1.046   0.613  1.00  0.00     0.020 C 
ATOM     18  C   UNL     1      10.543   0.190  -0.556  1.00  0.00     0.006 C 
ENDBRANCH  16  17
ENDBRANCH   6  16
ENDBRANCH   1   5
BRANCH   3  19
ATOM     19  C   UNL     1       4.301   4.598   1.235  1.00  0.00     0.130 C 
BRANCH  19  20
ATOM     20  C   UNL     1       3.676   3.969  -0.011  1.00  0.00     0.081 C 
BRANCH  20  21
ATOM     21  C   UNL     1       4.268   4.602  -1.244  1.00  0.00     0.014 A 
ATOM     22  S   UNL     1       4.237   6.311  -1.757  1.00  0.00    -0.148 S 
ATOM     23  C   UNL     1       4.959   4.019  -2.255  1.00  0.00     0.016 A 
ATOM     24  C   UNL     1       5.154   6.135  -3.278  1.00  0.00     0.065 A 
ATOM     25  C   UNL     1       5.413   4.805  -3.297  1.00  0.00     0.012 A 
ENDBRANCH  20  21
BRANCH  20  26
ATOM     26  C   UNL     1       2.186   4.197   0.004  1.00  0.00    -0.013 A 
ATOM     27  C   UNL     1       1.147   3.166   0.008  1.00  0.00     0.003 A 
ATOM     28  C   UNL     1       1.560   5.385   0.016  1.00  0.00     0.088 A 
ATOM     29  C   UNL     1      -0.082   3.852   0.024  1.00  0.00     0.046 A 
ATOM     30  C   UNL     1       1.165   1.770   0.000  1.00  0.00     0.010 A 
ATOM     31  N   UNL     1       0.205   5.198   0.028  1.00  0.00    -0.361 N 
ATOM     32  C   UNL     1      -1.268   3.125   0.031  1.00  0.00     0.026 A 
ATOM     33  C   UNL     1      -0.013   1.076   0.008  1.00  0.00     0.001 A 
ATOM     34  H   UNL     1      -0.496   5.953   0.039  1.00  0.00     0.166 HD
ATOM     35  C   UNL     1      -1.227   1.748   0.017  1.00  0.00     0.002 A 
ENDBRANCH  20  26
ENDBRANCH  19  20
ENDBRANCH   3  19
TORSDOF 7
