REMARK SMILES O=C(c1cc2c(C(F)(F)F)cc(O)nc2o1)N1CCc2[nH]c3ccc(Br)cc3c2C1
REMARK SMILES IDX 3 1 4 2 5 3 6 4 11 5 12 6 14 7 15 8 16 9 2 10 1 11 17 12
REMARK SMILES IDX 24 13 25 14 23 15 27 16 26 17 22 18 28 19 21 20 29 21 20 22
REMARK SMILES IDX 30 24 19 25 18 26 7 27 8 28 9 29 10 30 13 31
REMARK H PARENT 21 23 13 32
REMARK Flexibility Score: inf
ROOT
ATOM      1  C   UNL     1      -2.603   4.110   1.781  1.00  0.00     0.195 A 
ATOM      2  C   UNL     1      -3.377   4.869   2.603  1.00  0.00     0.067 A 
ATOM      3  C   UNL     1      -4.492   4.073   2.960  1.00  0.00     0.054 A 
ATOM      4  C   UNL     1      -5.626   4.294   3.772  1.00  0.00     0.074 A 
ATOM      5  C   UNL     1      -6.536   3.295   3.920  1.00  0.00     0.082 A 
ATOM      6  C   UNL     1      -6.337   2.065   3.266  1.00  0.00     0.214 A 
ATOM      7  N   UNL     1      -5.254   1.860   2.494  1.00  0.00    -0.177 NA
ATOM      8  C   UNL     1      -4.322   2.841   2.324  1.00  0.00     0.230 A 
ATOM      9  O   UNL     1      -3.179   2.897   1.625  1.00  0.00    -0.432 OA
ENDROOT
BRANCH   1  10
ATOM     10  C   UNL     1      -1.342   4.537   1.167  1.00  0.00     0.289 C 
ATOM     11  O   UNL     1      -0.975   5.692   1.273  1.00  0.00    -0.265 OA
BRANCH  10  12
ATOM     12  N   UNL     1      -0.590   3.650   0.485  1.00  0.00    -0.331 N 
ATOM     13  C   UNL     1       1.462  -2.496   1.443  1.00  0.00     0.018 A 
ATOM     14  C   UNL     1       0.097  -2.278   1.345  1.00  0.00     0.018 A 
ATOM     15  C   UNL     1       2.386  -1.476   1.294  1.00  0.00     0.028 A 
ATOM     16  C   UNL     1      -0.426  -1.022   1.091  1.00  0.00     0.026 A 
ATOM     17  Br  UNL     1      -1.085  -3.737   1.565  1.00  0.00    -0.051 Br
ATOM     18  C   UNL     1       1.887  -0.202   1.037  1.00  0.00     0.046 A 
ATOM     19  C   UNL     1       0.490   0.023   0.936  1.00  0.00     0.006 A 
ATOM     20  N   UNL     1       2.506   1.000   0.841  1.00  0.00    -0.358 N 
ATOM     21  C   UNL     1       0.332   1.436   0.668  1.00  0.00     0.000 A 
ATOM     22  C   UNL     1       1.569   1.976   0.623  1.00  0.00     0.023 A 
ATOM     23  H   UNL     1       3.525   1.150   0.855  1.00  0.00     0.166 HD
ATOM     24  C   UNL     1      -0.942   2.219   0.460  1.00  0.00     0.158 C 
ATOM     25  C   UNL     1       1.845   3.440   0.375  1.00  0.00     0.075 C 
ATOM     26  C   UNL     1       0.605   4.083  -0.255  1.00  0.00     0.126 C 
ENDBRANCH  10  12
ENDBRANCH   1  10
BRANCH   4  27
ATOM     27  C   UNL     1      -5.825   5.618   4.465  1.00  0.00     0.417 C 
ATOM     28  F   UNL     1      -7.013   5.585   5.202  1.00  0.00    -0.166 F 
ATOM     29  F   UNL     1      -4.749   5.860   5.325  1.00  0.00    -0.166 F 
ATOM     30  F   UNL     1      -5.897   6.638   3.510  1.00  0.00    -0.166 F 
ENDBRANCH   4  27
BRANCH   6  31
ATOM     31  O   UNL     1      -7.156   1.172   3.402  1.00  0.00    -0.493 OA
ATOM     32  H   UNL     1      -8.016   1.568   3.114  1.00  0.00     0.295 HD
ENDBRANCH   6  31
TORSDOF 4
