REMARK SMILES CCCCn1c(N)c(N(C(=O)C[N@@H+](C)C[C@]23C[C@H]4C[C@H](C[C@H](C4)C2)C3)C2CCCC2)c(=O)[nH]c1=O
REMARK SMILES IDX 10 1 11 2 9 3 8 4 5 5 34 6 6 7 33 8 35 9 31 10 32 12 4 13
REMARK SMILES IDX 3 14 2 15 1 16 7 17 26 20 30 21 27 22 29 23 28 24 12 25
REMARK SMILES IDX 13 26 14 27 15 29 16 30 17 31 24 32 25 33 18 34 22 35 20 36
REMARK SMILES IDX 19 37 23 38 21 39
REMARK H PARENT 33 11 7 18 7 19 13 28
REMARK Flexibility Score: inf
ROOT
ATOM      1  C   UNL     1      -7.226   1.676   2.031  1.00  0.00     0.282 C 
ATOM      2  O   UNL     1      -6.365   1.191   1.327  1.00  0.00    -0.268 OA
ENDROOT
BRANCH   1   3
ATOM      3  N   UNL     1      -8.523   1.374   1.816  1.00  0.00    -0.297 N 
BRANCH   3   4
ATOM      4  C   UNL     1      -9.532   2.033   2.549  1.00  0.00     0.151 A 
ATOM      5  N   UNL     1     -10.757   3.996   3.095  1.00  0.00    -0.278 N 
ATOM      6  C   UNL     1     -11.489   3.292   3.977  1.00  0.00     0.330 A 
ATOM      7  C   UNL     1      -9.766   3.381   2.366  1.00  0.00     0.137 A 
ATOM      8  N   UNL     1     -11.276   1.978   4.169  1.00  0.00    -0.272 N 
ATOM      9  O   UNL     1     -12.361   3.854   4.612  1.00  0.00    -0.248 OA
ATOM     10  C   UNL     1     -10.321   1.327   3.476  1.00  0.00     0.279 A 
ATOM     11  H   UNL     1     -11.848   1.464   4.853  1.00  0.00     0.175 HD
ATOM     12  O   UNL     1     -10.139   0.134   3.655  1.00  0.00    -0.267 OA
BRANCH   5  13
ATOM     13  C   UNL     1     -11.016   5.426   2.911  1.00  0.00     0.129 C 
BRANCH  13  14
ATOM     14  C   UNL     1     -12.060   5.617   1.809  1.00  0.00     0.022 C 
BRANCH  14  15
ATOM     15  C   UNL     1     -12.330   7.111   1.617  1.00  0.00    -0.002 C 
ATOM     16  C   UNL     1     -13.374   7.303   0.514  1.00  0.00     0.004 C 
ENDBRANCH  14  15
ENDBRANCH  13  14
ENDBRANCH   5  13
BRANCH   7  17
ATOM     17  N   UNL     1      -9.018   4.100   1.465  1.00  0.00    -0.383 N 
ATOM     18  H   UNL     1      -9.201   5.105   1.336  1.00  0.00     0.158 HD
ATOM     19  H   UNL     1      -8.276   3.636   0.920  1.00  0.00     0.158 HD
ENDBRANCH   7  17
ENDBRANCH   3   4
BRANCH   3  20
ATOM     20  C   UNL     1      -8.884   0.361   0.821  1.00  0.00     0.091 C 
ATOM     21  C   UNL     1      -8.307   0.743  -0.553  1.00  0.00     0.025 C 
ATOM     22  C   UNL     1      -8.259  -0.998   1.200  1.00  0.00     0.025 C 
ATOM     23  C   UNL     1      -7.351  -0.396  -0.962  1.00  0.00     0.002 C 
ATOM     24  C   UNL     1      -7.855  -1.621  -0.160  1.00  0.00     0.002 C 
ENDBRANCH   3  20
ENDBRANCH   1   3
BRANCH   1  25
ATOM     25  C   UNL     1      -6.846   2.615   3.147  1.00  0.00     0.363 C 
BRANCH  25  26
ATOM     26  N   UNL     1      -5.372   2.683   3.232  1.00  0.00    -0.329 N 
ATOM     27  C   UNL     1      -4.826   3.348   2.031  1.00  0.00     0.333 C 
ATOM     28  H   UNL     1      -4.995   1.725   3.284  1.00  0.00     0.348 HD
BRANCH  26  29
ATOM     29  C   UNL     1      -4.969   3.423   4.447  1.00  0.00     0.269 C 
BRANCH  29  30
ATOM     30  C   UNL     1      -3.668   2.817   4.976  1.00  0.00     0.020 C 
ATOM     31  C   UNL     1      -3.861   1.318   5.212  1.00  0.00     0.016 C 
ATOM     32  C   UNL     1      -3.289   3.496   6.294  1.00  0.00     0.016 C 
ATOM     33  C   UNL     1      -2.551   3.033   3.953  1.00  0.00     0.016 C 
ATOM     34  C   UNL     1      -2.560   0.713   5.742  1.00  0.00    -0.010 C 
ATOM     35  C   UNL     1      -1.987   2.891   6.824  1.00  0.00    -0.010 C 
ATOM     36  C   UNL     1      -1.250   2.427   4.482  1.00  0.00    -0.010 C 
ATOM     37  C   UNL     1      -1.444   0.928   4.718  1.00  0.00     0.007 C 
ATOM     38  C   UNL     1      -2.181   1.391   7.060  1.00  0.00     0.007 C 
ATOM     39  C   UNL     1      -0.871   3.106   5.800  1.00  0.00     0.007 C 
ENDBRANCH  29  30
ENDBRANCH  26  29
ENDBRANCH  25  26
ENDBRANCH   1  25
TORSDOF 11
