REMARK SMILES Cc1ccc([C@]2(O)NC(=O)N[C@@H](c3ccc(O)cc3)[C@@H]2C(=O)C(F)(F)F)cc1
REMARK SMILES IDX 6 1 20 2 12 3 11 4 9 5 10 6 8 7 5 10 1 11 2 12 28 13 3 14
REMARK SMILES IDX 27 15 4 16 7 17 21 19 22 20 23 21 24 22 25 23 26 24 13 25
REMARK SMILES IDX 19 26 14 27 18 28 15 29 16 30 17 31
REMARK H PARENT 11 8 8 9 7 18 17 32
REMARK Flexibility Score: inf
ROOT
ATOM      1  C   UNL     1      -3.372   2.618  -1.942  1.00  0.00     0.178 C 
ATOM      2  C   UNL     1      -3.077   4.015  -1.384  1.00  0.00     0.150 C 
ATOM      3  C   UNL     1      -2.553   3.867   0.049  1.00  0.00     0.130 C 
ATOM      4  N   UNL     1      -3.525   3.110   0.839  1.00  0.00    -0.330 N 
ATOM      5  C   UNL     1      -4.327   2.197   0.271  1.00  0.00     0.317 C 
ATOM      6  O   UNL     1      -5.110   1.588   0.975  1.00  0.00    -0.249 OA
ATOM      7  N   UNL     1      -4.300   1.929  -1.043  1.00  0.00    -0.305 N 
ATOM      8  H   UNL     1      -3.595   3.281   1.853  1.00  0.00     0.166 HD
ATOM      9  H   UNL     1      -4.944   1.223  -1.428  1.00  0.00     0.168 HD
ENDROOT
BRANCH   1  10
ATOM     10  C   UNL     1      -3.995   2.743  -3.308  1.00  0.00     0.005 A 
ATOM     11  C   UNL     1      -5.759   3.097  -7.183  1.00  0.00     0.044 C 
ATOM     12  C   UNL     1      -5.136   2.972  -5.816  1.00  0.00    -0.051 A 
ATOM     13  C   UNL     1      -5.939   2.945  -4.691  1.00  0.00     0.004 A 
ATOM     14  C   UNL     1      -3.763   2.884  -5.687  1.00  0.00     0.004 A 
ATOM     15  C   UNL     1      -5.369   2.826  -3.437  1.00  0.00     0.009 A 
ATOM     16  C   UNL     1      -3.192   2.769  -4.434  1.00  0.00     0.009 A 
ENDBRANCH   1  10
BRANCH   1  17
ATOM     17  O   UNL     1      -2.156   1.875  -2.037  1.00  0.00    -0.366 OA
ATOM     18  H   UNL     1      -1.528   2.343  -2.643  1.00  0.00     0.214 HD
ENDBRANCH   1  17
BRANCH   2  19
ATOM     19  C   UNL     1      -4.340   4.836  -1.379  1.00  0.00     0.246 C 
ATOM     20  O   UNL     1      -5.412   4.293  -1.260  1.00  0.00    -0.289 OA
BRANCH  19  21
ATOM     21  C   UNL     1      -4.266   6.334  -1.523  1.00  0.00     0.450 C 
ATOM     22  F   UNL     1      -4.828   6.939  -0.393  1.00  0.00    -0.163 F 
ATOM     23  F   UNL     1      -2.928   6.725  -1.644  1.00  0.00    -0.163 F 
ATOM     24  F   UNL     1      -4.973   6.729  -2.663  1.00  0.00    -0.163 F 
ENDBRANCH  19  21
ENDBRANCH   2  19
BRANCH   3  25
ATOM     25  C   UNL     1      -1.237   3.133   0.031  1.00  0.00    -0.024 A 
ATOM     26  C   UNL     1      -1.201   1.775   0.286  1.00  0.00     0.010 A 
ATOM     27  C   UNL     1      -0.067   3.821  -0.234  1.00  0.00     0.010 A 
ATOM     28  C   UNL     1       0.004   1.100   0.269  1.00  0.00     0.046 A 
ATOM     29  C   UNL     1       1.140   3.149  -0.257  1.00  0.00     0.046 A 
ATOM     30  C   UNL     1       1.179   1.786  -0.002  1.00  0.00     0.115 A 
BRANCH  30  31
ATOM     31  O   UNL     1       2.366   1.124  -0.019  1.00  0.00    -0.508 OA
ATOM     32  H   UNL     1       2.933   1.601   0.637  1.00  0.00     0.293 HD
ENDBRANCH  30  31
ENDBRANCH   3  25
TORSDOF 6
