REMARK SMILES CC(C)C[C@H](CO)NC(=O)C[C@@H]1c2nc(NC(=O)CC(C)(C)C)sc2C[C@H]2[C@@]1(C)CC[C@H](O)[C@]2(C)CO
REMARK SMILES IDX 11 1 9 2 8 3 10 5 5 6 4 7 2 8 1 9 3 10 6 11 7 12 12 14 28 15
REMARK SMILES IDX 13 16 27 17 30 18 29 19 14 20 25 21 26 22 34 23 31 24 15 25
REMARK SMILES IDX 24 26 32 27 35 28 36 29 37 30 16 32 17 33 18 35 19 36 20 37
REMARK SMILES IDX 21 38 22 39 23 40 33 41
REMARK H PARENT 8 4 7 13 37 31 16 34 33 42
REMARK Flexibility Score: inf
ROOT
ATOM      1  C   UNL     1      -2.673   0.123  -0.969  1.00  0.00     0.110 C 
ENDROOT
BRANCH   1   2
ATOM      2  C   UNL     1      -2.880   1.493  -0.377  1.00  0.00     0.220 C 
ATOM      3  N   UNL     1      -3.737   2.356  -0.958  1.00  0.00    -0.351 N 
ATOM      4  H   UNL     1      -4.250   2.079  -1.807  1.00  0.00     0.163 HD
ATOM      5  O   UNL     1      -2.276   1.819   0.623  1.00  0.00    -0.275 OA
BRANCH   3   6
ATOM      6  C   UNL     1      -3.938   3.688  -0.383  1.00  0.00     0.107 C 
BRANCH   6   7
ATOM      7  C   UNL     1      -5.317   4.214  -0.785  1.00  0.00     0.030 C 
BRANCH   7   8
ATOM      8  C   UNL     1      -6.401   3.307  -0.199  1.00  0.00    -0.015 C 
ATOM      9  C   UNL     1      -6.380   3.409   1.327  1.00  0.00     0.007 C 
ATOM     10  C   UNL     1      -7.770   3.745  -0.721  1.00  0.00     0.007 C 
ENDBRANCH   7   8
ENDBRANCH   6   7
BRANCH   6  11
ATOM     11  C   UNL     1      -2.857   4.637  -0.904  1.00  0.00     0.180 C 
BRANCH  11  12
ATOM     12  O   UNL     1      -3.013   4.808  -2.314  1.00  0.00    -0.394 OA
ATOM     13  H   UNL     1      -3.906   5.189  -2.505  1.00  0.00     0.210 HD
ENDBRANCH  11  12
ENDBRANCH   6  11
ENDBRANCH   3   6
ENDBRANCH   1   2
BRANCH   1  14
ATOM     14  C   UNL     1      -1.659  -0.650  -0.123  1.00  0.00     0.055 C 
ATOM     15  C   UNL     1      -1.544  -2.095  -0.652  1.00  0.00    -0.020 C 
ATOM     16  C   UNL     1      -0.307   0.042  -0.214  1.00  0.00     0.061 A 
ATOM     17  C   UNL     1      -0.359  -2.774   0.020  1.00  0.00     0.012 C 
ATOM     18  C   UNL     1      -2.855  -2.802  -0.293  1.00  0.00     0.010 C 
ATOM     19  C   UNL     1      -1.396  -2.034  -2.172  1.00  0.00     0.012 C 
ATOM     20  N   UNL     1      -0.153   1.364  -0.145  1.00  0.00    -0.224 NA
ATOM     21  C   UNL     1       0.833  -0.675  -0.378  1.00  0.00     0.030 A 
ATOM     22  C   UNL     1       0.957  -2.159  -0.485  1.00  0.00     0.053 C 
ATOM     23  C   UNL     1      -0.317  -4.286  -0.083  1.00  0.00     0.020 C 
ATOM     24  C   UNL     1      -2.772  -4.295  -0.594  1.00  0.00     0.033 C 
ATOM     25  C   UNL     1       1.028   1.941  -0.232  1.00  0.00     0.189 A 
ATOM     26  S   UNL     1       2.086   0.575  -0.428  1.00  0.00    -0.101 S 
ATOM     27  C   UNL     1      -1.667  -4.921   0.251  1.00  0.00     0.123 C 
ATOM     28  C   UNL     1       0.143  -4.773  -1.456  1.00  0.00     0.017 C 
BRANCH  23  29
ATOM     29  C   UNL     1       0.694  -4.816   0.958  1.00  0.00     0.165 C 
BRANCH  29  30
ATOM     30  O   UNL     1       0.752  -6.242   0.882  1.00  0.00    -0.396 OA
ATOM     31  H   UNL     1       1.041  -6.513  -0.026  1.00  0.00     0.210 HD
ENDBRANCH  29  30
ENDBRANCH  23  29
BRANCH  25  32
ATOM     32  N   UNL     1       1.347   3.292  -0.182  1.00  0.00    -0.302 N 
ATOM     33  C   UNL     1       2.631   3.686  -0.291  1.00  0.00     0.226 C 
ATOM     34  H   UNL     1       0.602   3.993  -0.061  1.00  0.00     0.172 HD
ATOM     35  O   UNL     1       3.509   2.860  -0.434  1.00  0.00    -0.275 OA
BRANCH  33  36
ATOM     36  C   UNL     1       2.978   5.152  -0.236  1.00  0.00     0.106 C 
BRANCH  36  37
ATOM     37  C   UNL     1       4.491   5.324  -0.383  1.00  0.00    -0.029 C 
ATOM     38  C   UNL     1       4.942   4.743  -1.724  1.00  0.00     0.011 C 
ATOM     39  C   UNL     1       4.843   6.812  -0.327  1.00  0.00     0.011 C 
ATOM     40  C   UNL     1       5.201   4.589   0.756  1.00  0.00     0.011 C 
ENDBRANCH  36  37
ENDBRANCH  33  36
ENDBRANCH  25  32
BRANCH  27  41
ATOM     41  O   UNL     1      -1.951  -4.731   1.640  1.00  0.00    -0.392 OA
ATOM     42  H   UNL     1      -2.817  -5.158   1.859  1.00  0.00     0.210 HD
ENDBRANCH  27  41
ENDBRANCH   1  14
TORSDOF 13
