REMARK SMILES O=C(NN/C=C1/C(=O)N(c2cccc(C(F)(F)F)c2)C(=O)c2ccccc21)c1c[nH]c2ccccc12
REMARK SMILES IDX 5 1 6 2 27 3 26 4 25 5 24 6 23 7 22 8 20 9 21 10 9 11 7 12
REMARK SMILES IDX 8 13 4 14 3 16 2 17 1 18 28 20 34 21 35 22 33 23 36 24 32 25
REMARK SMILES IDX 31 26 30 27 29 28 10 30 19 31 11 32 14 33 12 34 13 35 15 36
REMARK SMILES IDX 16 37 17 38 18 39
REMARK H PARENT 4 15 3 19 30 29
REMARK Flexibility Score: inf
ROOT
ATOM      1  C   UNL     1       4.707  -0.106   0.032  1.00  0.00     0.115 C 
ATOM      2  C   UNL     1       3.469  -0.707  -0.012  1.00  0.00     0.066 C 
ATOM      3  C   UNL     1       2.238   0.098  -0.167  1.00  0.00     0.002 A 
ATOM      4  C   UNL     1       2.278   1.483  -0.276  1.00  0.00     0.010 A 
ATOM      5  C   UNL     1       1.102   2.189  -0.420  1.00  0.00     0.001 A 
ATOM      6  C   UNL     1      -0.117   1.527  -0.457  1.00  0.00     0.001 A 
ATOM      7  C   UNL     1      -0.177   0.155  -0.351  1.00  0.00     0.014 A 
ATOM      8  C   UNL     1       1.001  -0.578  -0.205  1.00  0.00     0.048 A 
ATOM      9  C   UNL     1       0.982  -2.042  -0.089  1.00  0.00     0.265 C 
ATOM     10  O   UNL     1      -0.082  -2.631  -0.120  1.00  0.00    -0.268 OA
ATOM     11  N   UNL     1       2.120  -2.742   0.052  1.00  0.00    -0.242 N 
ATOM     12  C   UNL     1       3.331  -2.163   0.095  1.00  0.00     0.267 C 
ATOM     13  O   UNL     1       4.324  -2.855   0.224  1.00  0.00    -0.268 OA
ENDROOT
BRANCH   1  14
ATOM     14  N   UNL     1       4.827   1.172   0.477  1.00  0.00    -0.305 N 
ATOM     15  H   UNL     1       4.015   1.653   0.888  1.00  0.00     0.187 HD
BRANCH  14  16
ATOM     16  N   UNL     1       6.057   1.836   0.376  1.00  0.00    -0.266 N 
ATOM     17  C   UNL     1       6.176   3.104   0.817  1.00  0.00     0.271 C 
ATOM     18  O   UNL     1       5.216   3.672   1.303  1.00  0.00    -0.267 OA
ATOM     19  H   UNL     1       6.870   1.355  -0.035  1.00  0.00     0.191 HD
BRANCH  17  20
ATOM     20  C   UNL     1       7.465   3.801   0.711  1.00  0.00     0.066 A 
ATOM     21  C   UNL     1       7.600   7.402   2.021  1.00  0.00     0.001 A 
ATOM     22  C   UNL     1       7.010   6.190   1.736  1.00  0.00     0.011 A 
ATOM     23  C   UNL     1       8.938   7.616   1.721  1.00  0.00     0.002 A 
ATOM     24  C   UNL     1       7.760   5.181   1.138  1.00  0.00     0.012 A 
ATOM     25  C   UNL     1       9.693   6.625   1.134  1.00  0.00     0.027 A 
ATOM     26  C   UNL     1       9.115   5.395   0.838  1.00  0.00     0.046 A 
ATOM     27  N   UNL     1       9.600   4.237   0.266  1.00  0.00    -0.360 N 
ATOM     28  C   UNL     1       8.623   3.300   0.194  1.00  0.00     0.097 A 
ATOM     29  H   UNL     1      10.567   4.103  -0.060  1.00  0.00     0.166 HD
ENDBRANCH  17  20
ENDBRANCH  14  16
ENDBRANCH   1  14
BRANCH  11  30
ATOM     30  C   UNL     1       2.039  -4.136   0.158  1.00  0.00     0.053 A 
ATOM     31  C   UNL     1       1.263  -4.715   1.153  1.00  0.00     0.040 A 
ATOM     32  C   UNL     1       2.731  -4.943  -0.736  1.00  0.00     0.027 A 
ATOM     33  C   UNL     1       1.186  -6.090   1.255  1.00  0.00     0.058 A 
ATOM     34  C   UNL     1       2.654  -6.318  -0.626  1.00  0.00     0.003 A 
ATOM     35  C   UNL     1       1.880  -6.891   0.367  1.00  0.00     0.013 A 
BRANCH  33  36
ATOM     36  C   UNL     1       0.344  -6.719   2.335  1.00  0.00     0.416 C 
ATOM     37  F   UNL     1      -0.957  -6.915   1.859  1.00  0.00    -0.166 F 
ATOM     38  F   UNL     1       0.897  -7.951   2.700  1.00  0.00    -0.166 F 
ATOM     39  F   UNL     1       0.309  -5.874   3.450  1.00  0.00    -0.166 F 
ENDBRANCH  33  36
ENDBRANCH  11  30
TORSDOF 5
