REMARK SMILES Cc1cccc2c1c(Br)c(C(=O)NCc1cccc(C(N)=[NH2+])c1)n2Cc1cccc(C(N)=[NH2+])c1
REMARK SMILES IDX 1 1 2 2 3 3 4 4 5 5 6 6 7 7 8 8 10 9 24 10 9 11 25 12 26 13
REMARK SMILES IDX 34 14 27 15 30 16 28 17 29 18 31 19 32 20 33 21 11 26 12 27
REMARK SMILES IDX 13 28 14 30 15 31 23 32 16 33 19 34 17 35 18 36 20 37 21 38
REMARK SMILES IDX 22 39
REMARK H PARENT 32 22 32 23 33 24 33 25 13 29 21 40 21 41 22 42 22 43
REMARK Flexibility Score: inf
ROOT
ATOM      1  C   UNL     1       6.705   2.935  -3.246  1.00  0.00     0.045 C 
ATOM      2  C   UNL     1       5.998   2.192  -2.141  1.00  0.00    -0.041 A 
ATOM      3  C   UNL     1       6.507   1.015  -1.675  1.00  0.00     0.004 A 
ATOM      4  C   UNL     1       5.865   0.321  -0.657  1.00  0.00     0.002 A 
ATOM      5  C   UNL     1       4.703   0.808  -0.100  1.00  0.00     0.027 A 
ATOM      6  C   UNL     1       4.169   2.010  -0.555  1.00  0.00     0.050 A 
ATOM      7  C   UNL     1       4.819   2.708  -1.591  1.00  0.00     0.018 A 
ATOM      8  C   UNL     1       4.055   3.874  -1.847  1.00  0.00     0.056 A 
ATOM      9  C   UNL     1       2.991   3.865  -1.000  1.00  0.00     0.122 A 
ATOM     10  N   UNL     1       3.050   2.731  -0.211  1.00  0.00    -0.331 N 
ATOM     11  Br  UNL     1       4.446   5.204  -3.133  1.00  0.00    -0.048 Br
ENDROOT
BRANCH  10  12
ATOM     12  C   UNL     1       2.082   2.361   0.825  1.00  0.00     0.158 C 
BRANCH  12  13
ATOM     13  C   UNL     1       2.542   2.897   2.156  1.00  0.00    -0.027 A 
ATOM     14  C   UNL     1       3.395   2.148   2.941  1.00  0.00     0.022 A 
ATOM     15  C   UNL     1       2.109   4.137   2.589  1.00  0.00     0.005 A 
ATOM     16  C   UNL     1       3.821   2.645   4.173  1.00  0.00     0.063 A 
ATOM     17  C   UNL     1       2.527   4.635   3.810  1.00  0.00     0.001 A 
ATOM     18  C   UNL     1       3.385   3.898   4.602  1.00  0.00     0.016 A 
BRANCH  16  19
ATOM     19  C   UNL     1       4.736   1.847   5.021  1.00  0.00     0.270 C 
ATOM     20  N   UNL     1       5.061   2.285   6.286  1.00  0.00    -0.287 N 
ATOM     21  N   UNL     1       5.208   0.722   4.505  1.00  0.00    -0.287 N 
ATOM     22  H   UNL     1       4.667   3.167   6.643  1.00  0.00     0.302 HD
ATOM     23  H   UNL     1       5.698   1.729   6.875  1.00  0.00     0.302 HD
ATOM     24  H   UNL     1       4.958   0.404   3.558  1.00  0.00     0.302 HD
ATOM     25  H   UNL     1       5.846   0.151   5.077  1.00  0.00     0.302 HD
ENDBRANCH  16  19
ENDBRANCH  12  13
ENDBRANCH  10  12
BRANCH   9  26
ATOM     26  C   UNL     1       1.946   4.896  -0.934  1.00  0.00     0.269 C 
ATOM     27  O   UNL     1       2.132   5.911  -0.291  1.00  0.00    -0.268 OA
ATOM     28  N   UNL     1       0.780   4.716  -1.587  1.00  0.00    -0.347 N 
ATOM     29  H   UNL     1       0.591   3.825  -2.067  1.00  0.00     0.164 HD
BRANCH  28  30
ATOM     30  C   UNL     1      -0.218   5.788  -1.613  1.00  0.00     0.152 C 
BRANCH  30  31
ATOM     31  C   UNL     1      -1.467   5.296  -2.298  1.00  0.00    -0.028 A 
ATOM     32  C   UNL     1      -2.508   4.788  -1.549  1.00  0.00     0.022 A 
ATOM     33  C   UNL     1      -1.568   5.359  -3.676  1.00  0.00     0.005 A 
ATOM     34  C   UNL     1      -3.663   4.333  -2.184  1.00  0.00     0.063 A 
ATOM     35  C   UNL     1      -2.709   4.903  -4.312  1.00  0.00     0.001 A 
ATOM     36  C   UNL     1      -3.758   4.394  -3.574  1.00  0.00     0.016 A 
BRANCH  34  37
ATOM     37  C   UNL     1      -4.785   3.788  -1.386  1.00  0.00     0.270 C 
ATOM     38  N   UNL     1      -5.925   3.339  -2.017  1.00  0.00    -0.287 N 
ATOM     39  N   UNL     1      -4.631   3.759  -0.071  1.00  0.00    -0.287 N 
ATOM     40  H   UNL     1      -5.997   3.382  -3.043  1.00  0.00     0.302 HD
ATOM     41  H   UNL     1      -6.705   2.959  -1.462  1.00  0.00     0.302 HD
ATOM     42  H   UNL     1      -3.775   4.097   0.390  1.00  0.00     0.302 HD
ATOM     43  H   UNL     1      -5.399   3.384   0.503  1.00  0.00     0.302 HD
ENDBRANCH  34  37
ENDBRANCH  30  31
ENDBRANCH  28  30
ENDBRANCH   9  26
TORSDOF 7
