REMARK SMILES CC(C)(C)C(=O)Nc1nc2c(s1)C[C@@H]1[C@](C)(CO)[C@H](O)CC[C@@]1(C)[C@@H]2CC(=O)NC1CCCCC1
REMARK SMILES IDX 24 1 23 2 22 3 21 4 19 5 15 6 14 7 13 8 11 9 10 10 9 11 8 12
REMARK SMILES IDX 12 13 25 14 16 15 26 16 27 17 28 18 29 19 30 21 35 22 31 23
REMARK SMILES IDX 34 24 32 25 33 26 17 27 18 28 20 30 7 32 5 33 6 35 2 36 1 37
REMARK SMILES IDX 3 38 4 39
REMARK H PARENT 29 20 18 29 20 31 7 34
REMARK Flexibility Score: inf
ROOT
ATOM      1  C   UNL     1       1.085   1.945  -2.448  1.00  0.00     0.012 C 
ATOM      2  C   UNL     1       1.985   1.517  -1.286  1.00  0.00    -0.020 C 
ATOM      3  C   UNL     1       1.411   2.049   0.031  1.00  0.00     0.010 C 
ATOM      4  C   UNL     1       0.034   1.444   0.294  1.00  0.00     0.033 C 
ATOM      5  C   UNL     1       0.175  -0.078   0.398  1.00  0.00     0.123 C 
ATOM      6  C   UNL     1       0.702  -0.613  -0.932  1.00  0.00     0.020 C 
ATOM      7  C   UNL     1       2.075  -0.010  -1.243  1.00  0.00     0.012 C 
ATOM      8  C   UNL     1       2.495  -0.526  -2.634  1.00  0.00     0.053 C 
ATOM      9  C   UNL     1       3.624   0.287  -3.139  1.00  0.00     0.030 A 
ATOM     10  C   UNL     1       4.070   1.477  -2.659  1.00  0.00     0.061 A 
ATOM     11  N   UNL     1       5.114   2.007  -3.292  1.00  0.00    -0.224 NA
ATOM     12  C   UNL     1       5.686   1.416  -4.321  1.00  0.00     0.189 A 
ATOM     13  S   UNL     1       4.731  -0.028  -4.488  1.00  0.00    -0.101 S 
ATOM     14  C   UNL     1       3.382   2.125  -1.467  1.00  0.00     0.055 C 
ATOM     15  C   UNL     1       0.824  -2.136  -0.852  1.00  0.00     0.017 C 
ENDROOT
BRANCH  14  16
ATOM     16  C   UNL     1       3.256   3.631  -1.709  1.00  0.00     0.110 C 
BRANCH  16  17
ATOM     17  C   UNL     1       4.625   4.259  -1.689  1.00  0.00     0.220 C 
ATOM     18  O   UNL     1       5.606   3.571  -1.501  1.00  0.00    -0.275 OA
ATOM     19  N   UNL     1       4.760   5.587  -1.881  1.00  0.00    -0.353 N 
ATOM     20  H   UNL     1       3.927   6.171  -2.041  1.00  0.00     0.163 HD
BRANCH  19  21
ATOM     21  C   UNL     1       6.091   6.198  -1.863  1.00  0.00     0.082 C 
ATOM     22  C   UNL     1       6.070   7.490  -2.681  1.00  0.00     0.025 C 
ATOM     23  C   UNL     1       6.486   6.515  -0.419  1.00  0.00     0.025 C 
ATOM     24  C   UNL     1       7.460   8.129  -2.662  1.00  0.00     0.002 C 
ATOM     25  C   UNL     1       7.877   7.153  -0.399  1.00  0.00     0.002 C 
ATOM     26  C   UNL     1       7.856   8.446  -1.218  1.00  0.00     0.000 C 
ENDBRANCH  19  21
ENDBRANCH  16  17
ENDBRANCH  14  16
BRANCH   6  27
ATOM     27  C   UNL     1      -0.275  -0.242  -2.050  1.00  0.00     0.165 C 
BRANCH  27  28
ATOM     28  O   UNL     1      -1.504  -0.946  -1.862  1.00  0.00    -0.396 OA
ATOM     29  H   UNL     1      -1.896  -0.699  -0.987  1.00  0.00     0.210 HD
ENDBRANCH  27  28
ENDBRANCH   6  27
BRANCH   5  30
ATOM     30  O   UNL     1      -1.099  -0.660   0.677  1.00  0.00    -0.392 OA
ATOM     31  H   UNL     1      -1.731  -0.437  -0.051  1.00  0.00     0.210 HD
ENDBRANCH   5  30
BRANCH  12  32
ATOM     32  N   UNL     1       6.772   1.837  -5.078  1.00  0.00    -0.302 N 
ATOM     33  C   UNL     1       7.212   1.082  -6.104  1.00  0.00     0.231 C 
ATOM     34  H   UNL     1       7.241   2.727  -4.856  1.00  0.00     0.172 HD
ATOM     35  O   UNL     1       6.660   0.034  -6.365  1.00  0.00    -0.274 OA
BRANCH  33  36
ATOM     36  C   UNL     1       8.390   1.539  -6.925  1.00  0.00     0.041 C 
ATOM     37  C   UNL     1       8.682   0.507  -8.016  1.00  0.00     0.021 C 
ATOM     38  C   UNL     1       8.069   2.888  -7.571  1.00  0.00     0.021 C 
ATOM     39  C   UNL     1       9.616   1.685  -6.021  1.00  0.00     0.021 C 
ENDBRANCH  33  36
ENDBRANCH  12  32
TORSDOF 8
