REMARK SMILES CCC[N@H+]1CC2=C(NC(=S)N[C@H]2c2ccc(N(C)C)cc2)/C(=C\c2ccc(N(C)C)cc2)C1
REMARK SMILES IDX 33 1 22 2 23 3 7 4 6 5 5 6 12 7 11 8 9 9 10 10 8 11 4 12
REMARK SMILES IDX 3 16 2 17 1 18 24 19 32 20 25 21 31 22 26 23 27 24 28 25
REMARK SMILES IDX 29 26 30 27 13 28 21 29 14 30 20 31 15 32 16 33 17 34 18 35
REMARK SMILES IDX 19 36
REMARK H PARENT 11 13 8 14 4 15
REMARK Flexibility Score: inf
ROOT
ATOM      1  C   UNL     1      -0.216   3.220   4.283  1.00  0.00     0.301 C 
ATOM      2  C   UNL     1      -1.357   3.547   5.224  1.00  0.00     0.031 C 
ATOM      3  C   UNL     1      -2.247   4.513   4.932  1.00  0.00     0.019 C 
ATOM      4  C   UNL     1      -1.456   2.767   6.474  1.00  0.00     0.056 C 
ATOM      5  C   UNL     1      -0.690   1.687   6.649  1.00  0.00     0.035 C 
ATOM      6  C   UNL     1       0.291   1.249   5.589  1.00  0.00     0.299 C 
ATOM      7  C   UNL     1      -0.781   0.870   7.911  1.00  0.00     0.146 C 
ATOM      8  N   UNL     1      -1.754   1.405   8.848  1.00  0.00    -0.352 N 
ATOM      9  C   UNL     1      -2.485   2.499   8.605  1.00  0.00     0.171 C 
ATOM     10  S   UNL     1      -3.601   3.041   9.784  1.00  0.00    -0.041 S 
ATOM     11  N   UNL     1      -2.359   3.182   7.456  1.00  0.00    -0.332 N 
ATOM     12  N   UNL     1      -0.109   1.743   4.262  1.00  0.00    -0.328 N 
ATOM     13  H   UNL     1      -1.889   0.916   9.745  1.00  0.00     0.163 HD
ATOM     14  H   UNL     1      -2.935   4.021   7.296  1.00  0.00     0.169 HD
ATOM     15  H   UNL     1      -1.028   1.346   4.018  1.00  0.00     0.348 HD
ENDROOT
BRANCH  12  16
ATOM     16  C   UNL     1       0.883   1.322   3.247  1.00  0.00     0.262 C 
BRANCH  16  17
ATOM     17  C   UNL     1       0.336   1.647   1.856  1.00  0.00     0.058 C 
ATOM     18  C   UNL     1       1.343   1.200   0.794  1.00  0.00     0.010 C 
ENDBRANCH  16  17
ENDBRANCH  12  16
BRANCH   3  19
ATOM     19  C   UNL     1      -3.566   4.521   5.586  1.00  0.00    -0.025 A 
ATOM     20  C   UNL     1      -4.143   5.730   5.987  1.00  0.00     0.010 A 
ATOM     21  C   UNL     1      -4.248   3.319   5.802  1.00  0.00     0.010 A 
ATOM     22  C   UNL     1      -5.377   5.733   6.598  1.00  0.00     0.026 A 
ATOM     23  C   UNL     1      -5.479   3.330   6.419  1.00  0.00     0.026 A 
ATOM     24  C   UNL     1      -6.050   4.535   6.816  1.00  0.00     0.036 A 
BRANCH  24  25
ATOM     25  N   UNL     1      -7.299   4.542   7.436  1.00  0.00    -0.378 N 
ATOM     26  C   UNL     1      -7.901   5.810   7.856  1.00  0.00     0.143 C 
ATOM     27  C   UNL     1      -8.009   3.282   7.667  1.00  0.00     0.143 C 
ENDBRANCH  24  25
ENDBRANCH   3  19
BRANCH   7  28
ATOM     28  C   UNL     1      -1.173  -0.540   7.553  1.00  0.00    -0.021 A 
ATOM     29  C   UNL     1      -0.207  -1.528   7.485  1.00  0.00     0.008 A 
ATOM     30  C   UNL     1      -2.497  -0.845   7.298  1.00  0.00     0.008 A 
ATOM     31  C   UNL     1      -0.562  -2.822   7.157  1.00  0.00     0.026 A 
ATOM     32  C   UNL     1      -2.858  -2.136   6.964  1.00  0.00     0.026 A 
ATOM     33  C   UNL     1      -1.891  -3.130   6.895  1.00  0.00     0.036 A 
BRANCH  33  34
ATOM     34  N   UNL     1      -2.253  -4.438   6.563  1.00  0.00    -0.378 N 
ATOM     35  C   UNL     1      -1.232  -5.485   6.492  1.00  0.00     0.143 C 
ATOM     36  C   UNL     1      -3.655  -4.761   6.287  1.00  0.00     0.143 C 
ENDBRANCH  33  34
ENDBRANCH   7  28
TORSDOF 6
