REMARK SMILES COC(=O)c1[nH]c2cc(OC)ccc2c1NC(=O)CC[NH+]1CCN(c2ccc(Cl)cc2)CC1
REMARK SMILES IDX 16 1 17 2 18 3 15 5 9 6 8 7 12 8 7 9 13 10 14 11 6 12 5 13
REMARK SMILES IDX 10 15 11 16 3 17 4 18 2 19 1 20 19 21 20 22 21 23 22 24
REMARK SMILES IDX 33 25 23 27 32 28 24 29 25 30 31 31 26 32 30 33 27 34 28 35
REMARK SMILES IDX 29 36
REMARK H PARENT 16 4 6 14 21 26
REMARK Flexibility Score: inf
ROOT
ATOM      1  N   UNL     1      -0.792   1.368   6.245  1.00  0.00    -0.323 N 
ATOM      2  C   UNL     1      -0.200   1.704   5.083  1.00  0.00     0.230 C 
ATOM      3  O   UNL     1       1.010   1.764   5.013  1.00  0.00    -0.275 OA
ATOM      4  H   UNL     1      -1.817   1.414   6.334  1.00  0.00     0.170 HD
ENDROOT
BRANCH   1   5
ATOM      5  C   UNL     1      -0.019   0.957   7.326  1.00  0.00     0.082 A 
ATOM      6  C   UNL     1       2.603  -2.243   8.088  1.00  0.00     0.120 A 
ATOM      7  C   UNL     1       2.307  -1.256   9.009  1.00  0.00     0.073 A 
ATOM      8  C   UNL     1       2.026  -2.224   6.818  1.00  0.00     0.047 A 
ATOM      9  C   UNL     1       1.426  -0.233   8.668  1.00  0.00     0.052 A 
ATOM     10  C   UNL     1       1.161  -1.231   6.467  1.00  0.00     0.016 A 
ATOM     11  C   UNL     1       0.848  -0.221   7.384  1.00  0.00     0.024 A 
ATOM     12  N   UNL     1       0.953   0.859   9.357  1.00  0.00    -0.347 N 
ATOM     13  C   UNL     1       0.085   1.585   8.551  1.00  0.00     0.149 A 
ATOM     14  H   UNL     1       1.204   1.102  10.326  1.00  0.00     0.167 HD
BRANCH   6  15
ATOM     15  O   UNL     1       3.462  -3.240   8.422  1.00  0.00    -0.497 OA
ATOM     16  C   UNL     1       3.727  -4.230   7.426  1.00  0.00     0.278 C 
ENDBRANCH   6  15
BRANCH  13  17
ATOM     17  C   UNL     1      -0.587   2.774   8.927  1.00  0.00     0.356 C 
ATOM     18  O   UNL     1      -1.212   3.408   8.097  1.00  0.00    -0.244 OA
BRANCH  17  19
ATOM     19  O   UNL     1      -0.535   3.204  10.206  1.00  0.00    -0.464 OA
ATOM     20  C   UNL     1      -1.236   4.410  10.514  1.00  0.00     0.282 C 
ENDBRANCH  17  19
ENDBRANCH  13  17
ENDBRANCH   1   5
BRANCH   2  21
ATOM     21  C   UNL     1      -1.040   2.007   3.869  1.00  0.00     0.161 C 
BRANCH  21  22
ATOM     22  C   UNL     1      -0.128   2.358   2.692  1.00  0.00     0.272 C 
BRANCH  22  23
ATOM     23  N   UNL     1      -0.958   2.630   1.499  1.00  0.00    -0.332 N 
ATOM     24  C   UNL     1      -0.127   3.222   0.429  1.00  0.00     0.283 C 
ATOM     25  C   UNL     1      -2.060   3.550   1.849  1.00  0.00     0.283 C 
ATOM     26  H   UNL     1      -1.357   1.742   1.161  1.00  0.00     0.348 HD
ATOM     27  C   UNL     1      -1.000   3.441  -0.809  1.00  0.00     0.178 C 
ATOM     28  C   UNL     1      -2.933   3.769   0.610  1.00  0.00     0.178 C 
ATOM     29  N   UNL     1      -2.113   4.338  -0.469  1.00  0.00    -0.360 N 
BRANCH  29  30
ATOM     30  C   UNL     1      -2.892   4.619  -1.594  1.00  0.00     0.037 A 
ATOM     31  C   UNL     1      -3.998   5.452  -1.485  1.00  0.00     0.027 A 
ATOM     32  C   UNL     1      -2.558   4.071  -2.826  1.00  0.00     0.027 A 
ATOM     33  C   UNL     1      -4.766   5.728  -2.599  1.00  0.00     0.022 A 
ATOM     34  C   UNL     1      -3.333   4.345  -3.936  1.00  0.00     0.022 A 
ATOM     35  C   UNL     1      -4.434   5.176  -3.824  1.00  0.00     0.041 A 
ATOM     36  Cl  UNL     1      -5.402   5.525  -5.222  1.00  0.00    -0.084 Cl
ENDBRANCH  29  30
ENDBRANCH  22  23
ENDBRANCH  21  22
ENDBRANCH   2  21
TORSDOF 8
