REMARK SMILES O=C(Cc1cccc2ccccc12)NNC(=O)c1cccc(S(=O)(=O)[N-]c2ccccc2Cl)c1
REMARK SMILES IDX 18 1 19 2 20 3 21 4 22 5 34 6 16 7 15 8 17 10 14 11 2 12
REMARK SMILES IDX 1 13 3 15 4 16 10 17 9 18 11 19 8 20 12 21 13 22 7 23 6 24
REMARK SMILES IDX 5 25 23 26 24 27 25 28 26 29 27 30 32 31 28 32 31 33 33 34
REMARK SMILES IDX 29 35 30 36
REMARK H PARENT 15 9 14 14
REMARK Flexibility Score: inf
ROOT
ATOM      1  C   UNL     1       2.589   0.788  -0.295  1.00  0.00     0.042 A 
ATOM      2  C   UNL     1       2.666  -0.606  -0.308  1.00  0.00     0.014 A 
ATOM      3  C   UNL     1       3.896  -1.227  -0.259  1.00  0.00     0.002 A 
ATOM      4  C   UNL     1       5.053  -0.471  -0.186  1.00  0.00     0.019 A 
ATOM      5  C   UNL     1       4.985   0.910  -0.167  1.00  0.00     0.053 A 
ATOM      6  C   UNL     1       3.760   1.544  -0.221  1.00  0.00     0.032 A 
ENDROOT
BRANCH   1   7
ATOM      7  C   UNL     1       1.274   1.460  -0.353  1.00  0.00     0.269 C 
ATOM      8  N   UNL     1       0.145   0.727  -0.424  1.00  0.00    -0.263 N 
ATOM      9  H   UNL     1       0.199  -0.301  -0.434  1.00  0.00     0.191 HD
ATOM     10  O   UNL     1       1.210   2.674  -0.336  1.00  0.00    -0.267 OA
BRANCH   8  11
ATOM     11  N   UNL     1      -1.101   1.364  -0.484  1.00  0.00    -0.267 N 
ATOM     12  C   UNL     1      -2.230   0.631  -0.561  1.00  0.00     0.242 C 
ATOM     13  O   UNL     1      -2.166  -0.580  -0.578  1.00  0.00    -0.273 OA
ATOM     14  H   UNL     1      -1.155   2.393  -0.470  1.00  0.00     0.191 HD
BRANCH  12  15
ATOM     15  C   UNL     1      -3.570   1.317  -0.626  1.00  0.00     0.138 C 
BRANCH  15  16
ATOM     16  C   UNL     1      -4.661   0.280  -0.706  1.00  0.00    -0.031 A 
ATOM     17  C   UNL     1      -6.202  -1.483   2.756  1.00  0.00     0.001 A 
ATOM     18  C   UNL     1      -6.701  -1.860   1.547  1.00  0.00     0.009 A 
ATOM     19  C   UNL     1      -5.193  -0.526   2.849  1.00  0.00     0.001 A 
ATOM     20  C   UNL     1      -6.194  -1.277   0.373  1.00  0.00    -0.018 A 
ATOM     21  C   UNL     1      -4.677   0.059   1.734  1.00  0.00     0.009 A 
ATOM     22  C   UNL     1      -5.164  -0.307   0.468  1.00  0.00    -0.015 A 
ATOM     23  C   UNL     1      -6.684  -1.640  -0.893  1.00  0.00     0.009 A 
ATOM     24  C   UNL     1      -6.169  -1.054  -2.008  1.00  0.00     0.001 A 
ATOM     25  C   UNL     1      -5.160  -0.097  -1.915  1.00  0.00     0.005 A 
ENDBRANCH  15  16
ENDBRANCH  12  15
ENDBRANCH   8  11
ENDBRANCH   1   7
BRANCH   5  26
ATOM     26  S   UNL     1       6.464   1.863  -0.074  1.00  0.00     0.123 S 
ATOM     27  O   UNL     1       7.507   1.044  -0.584  1.00  0.00    -0.240 OA
ATOM     28  O   UNL     1       6.160   3.139  -0.620  1.00  0.00    -0.240 OA
BRANCH  26  29
ATOM     29  N   UNL     1       6.792   2.102   1.532  1.00  0.00    -0.572 NA
BRANCH  29  30
ATOM     30  C   UNL     1       7.013   1.006   2.370  1.00  0.00    -0.109 A 
ATOM     31  C   UNL     1       6.568   1.035   3.687  1.00  0.00     0.026 A 
ATOM     32  C   UNL     1       7.671  -0.118   1.888  1.00  0.00    -0.014 A 
ATOM     33  C   UNL     1       6.788  -0.050   4.513  1.00  0.00     0.019 A 
ATOM     34  Cl  UNL     1       5.737   2.434   4.293  1.00  0.00    -0.086 Cl
ATOM     35  C   UNL     1       7.893  -1.197   2.721  1.00  0.00    -0.001 A 
ATOM     36  C   UNL     1       7.449  -1.165   4.031  1.00  0.00     0.001 A 
ENDBRANCH  29  30
ENDBRANCH  26  29
ENDBRANCH   5  26
TORSDOF 7
