REMARK SMILES O=C(CN1CC[NH+](C2CCCC2)CC1)NC[C@@H](c1ccc(Cl)cc1Cl)c1c[nH]c2ccccc12
REMARK SMILES IDX 15 1 2 2 1 3 16 5 17 6 26 7 32 8 33 9 31 10 34 11 30 12
REMARK SMILES IDX 29 13 28 14 27 15 18 17 24 18 19 19 23 20 25 21 20 22 21 23
REMARK SMILES IDX 22 24 3 25 4 26 14 27 5 28 13 29 6 30 7 31 8 33 12 34 9 35
REMARK SMILES IDX 11 36 10 37
REMARK H PARENT 15 4 28 16 7 32
REMARK Flexibility Score: inf
ROOT
ATOM      1  N   UNL     1       2.598   3.958   2.441  1.00  0.00    -0.354 N 
ATOM      2  C   UNL     1       2.675   4.513   3.667  1.00  0.00     0.234 C 
ATOM      3  O   UNL     1       2.689   5.720   3.787  1.00  0.00    -0.274 OA
ATOM      4  H   UNL     1       2.585   2.933   2.340  1.00  0.00     0.163 HD
ENDROOT
BRANCH   1   5
ATOM      5  C   UNL     1       2.532   4.813   1.253  1.00  0.00     0.129 C 
BRANCH   5   6
ATOM      6  C   UNL     1       2.451   3.939  -0.000  1.00  0.00     0.072 C 
BRANCH   6   7
ATOM      7  C   UNL     1       2.507   4.813  -1.226  1.00  0.00    -0.013 A 
ATOM      8  C   UNL     1       5.403   4.182  -3.633  1.00  0.00     0.001 A 
ATOM      9  C   UNL     1       4.648   3.977  -2.513  1.00  0.00     0.010 A 
ATOM     10  C   UNL     1       5.053   5.164  -4.550  1.00  0.00     0.002 A 
ATOM     11  C   UNL     1       3.515   4.762  -2.288  1.00  0.00     0.003 A 
ATOM     12  C   UNL     1       3.940   5.950  -4.347  1.00  0.00     0.026 A 
ATOM     13  C   UNL     1       3.157   5.758  -3.213  1.00  0.00     0.046 A 
ATOM     14  N   UNL     1       2.014   6.362  -2.737  1.00  0.00    -0.361 N 
ATOM     15  C   UNL     1       1.639   5.782  -1.556  1.00  0.00     0.087 A 
ATOM     16  H   UNL     1       1.517   7.136  -3.201  1.00  0.00     0.166 HD
ENDBRANCH   6   7
BRANCH   6  17
ATOM     17  C   UNL     1       1.157   3.167   0.008  1.00  0.00    -0.020 A 
ATOM     18  C   UNL     1       1.176   1.784   0.000  1.00  0.00     0.046 A 
ATOM     19  C   UNL     1      -0.050   3.842   0.024  1.00  0.00     0.007 A 
ATOM     20  C   UNL     1      -0.013   1.076   0.008  1.00  0.00     0.041 A 
ATOM     21  Cl  UNL     1       2.691   0.937  -0.018  1.00  0.00    -0.084 Cl
ATOM     22  C   UNL     1      -1.238   3.135   0.032  1.00  0.00     0.021 A 
ATOM     23  C   UNL     1      -1.220   1.751   0.017  1.00  0.00     0.042 A 
ATOM     24  Cl  UNL     1      -2.711   0.864   0.020  1.00  0.00    -0.084 Cl
ENDBRANCH   6  17
ENDBRANCH   5   6
ENDBRANCH   1   5
BRANCH   2  25
ATOM     25  C   UNL     1       2.742   3.634   4.889  1.00  0.00     0.185 C 
BRANCH  25  26
ATOM     26  N   UNL     1       2.820   4.473   6.092  1.00  0.00    -0.283 NA
ATOM     27  C   UNL     1       2.649   3.666   7.309  1.00  0.00     0.146 C 
ATOM     28  C   UNL     1       4.085   5.220   6.133  1.00  0.00     0.146 C 
ATOM     29  C   UNL     1       2.657   4.585   8.532  1.00  0.00     0.278 C 
ATOM     30  C   UNL     1       4.092   6.139   7.356  1.00  0.00     0.278 C 
ATOM     31  N   UNL     1       3.921   5.332   8.573  1.00  0.00    -0.330 N 
ATOM     32  H   UNL     1       4.692   4.651   8.613  1.00  0.00     0.348 HD
BRANCH  31  33
ATOM     33  C   UNL     1       3.999   6.171   9.776  1.00  0.00     0.184 C 
ATOM     34  C   UNL     1       5.330   6.943   9.796  1.00  0.00     0.065 C 
ATOM     35  C   UNL     1       2.877   7.230   9.756  1.00  0.00     0.065 C 
ATOM     36  C   UNL     1       4.970   8.443   9.787  1.00  0.00     0.006 C 
ATOM     37  C   UNL     1       3.534   8.493  10.365  1.00  0.00     0.006 C 
ENDBRANCH  31  33
ENDBRANCH  25  26
ENDBRANCH   2  25
TORSDOF 7
