REMARK SMILES Nc1nc(N)nc(CSc2nc3scc(-c4cccs4)c3c(=O)[nH]2)n1
REMARK SMILES IDX 8 1 9 2 10 3 15 4 21 5 14 6 12 7 22 8 13 9 11 10 23 11 24 12
REMARK SMILES IDX 16 14 18 15 19 16 17 17 20 18 7 19 25 20 6 21 2 22 4 23 3 24
REMARK SMILES IDX 1 25 5 28
REMARK H PARENT 24 13 1 26 1 27 5 29 5 30
REMARK Flexibility Score: inf
ROOT
ATOM      1  C   UNL     1       5.052   0.550  -0.043  1.00  0.00     0.155 C 
ENDROOT
BRANCH   1   2
ATOM      2  S   UNL     1       3.888  -0.836  -0.040  1.00  0.00    -0.080 SA
BRANCH   2   3
ATOM      3  C   UNL     1       2.363   0.046  -0.020  1.00  0.00     0.170 A 
ATOM      4  C   UNL     1      -1.163   2.330   0.020  1.00  0.00     0.017 A 
ATOM      5  C   UNL     1      -0.017   1.424   0.010  1.00  0.00     0.085 A 
ATOM      6  C   UNL     1      -0.935   3.667   0.030  1.00  0.00     0.077 A 
ATOM      7  C   UNL     1       1.239   2.054   0.001  1.00  0.00     0.132 A 
ATOM      8  C   UNL     1       0.002  -0.004   0.002  1.00  0.00     0.260 A 
ATOM      9  S   UNL     1       0.843   3.784   0.014  1.00  0.00    -0.123 S 
ATOM     10  N   UNL     1       2.373   1.364  -0.014  1.00  0.00    -0.213 NA
ATOM     11  O   UNL     1      -1.041  -0.635   0.008  1.00  0.00    -0.269 OA
ATOM     12  N   UNL     1       1.185  -0.644  -0.013  1.00  0.00    -0.301 N 
ATOM     13  H   UNL     1       1.203  -1.674  -0.018  1.00  0.00     0.172 HD
BRANCH   4  14
ATOM     14  C   UNL     1      -2.542   1.801   0.023  1.00  0.00     0.036 A 
ATOM     15  C   UNL     1      -4.799   1.492   0.656  1.00  0.00     0.012 A 
ATOM     16  C   UNL     1      -4.916   0.570  -0.332  1.00  0.00     0.065 A 
ATOM     17  C   UNL     1      -3.587   2.122   0.848  1.00  0.00     0.020 A 
ATOM     18  S   UNL     1      -3.278   0.571  -1.042  1.00  0.00    -0.144 S 
ENDBRANCH   4  14
ENDBRANCH   2   3
ENDBRANCH   1   2
BRANCH   1  19
ATOM     19  C   UNL     1       6.463   0.021  -0.060  1.00  0.00     0.146 A 
ATOM     20  N   UNL     1       7.069  -0.205  -1.212  1.00  0.00    -0.197 NA
ATOM     21  N   UNL     1       7.093  -0.212   1.079  1.00  0.00    -0.197 NA
ATOM     22  C   UNL     1       8.316  -0.672  -1.231  1.00  0.00     0.225 A 
ATOM     23  C   UNL     1       8.338  -0.684   1.068  1.00  0.00     0.225 A 
ATOM     24  N   UNL     1       8.950  -0.912  -0.088  1.00  0.00    -0.177 NA
BRANCH  22  25
ATOM     25  N   UNL     1       8.948  -0.906  -2.435  1.00  0.00    -0.368 N 
ATOM     26  H   UNL     1       9.912  -1.268  -2.448  1.00  0.00     0.159 HD
ATOM     27  H   UNL     1       8.455  -0.720  -3.320  1.00  0.00     0.159 HD
ENDBRANCH  22  25
BRANCH  23  28
ATOM     28  N   UNL     1       8.993  -0.931   2.257  1.00  0.00    -0.368 N 
ATOM     29  H   UNL     1       8.518  -0.750   3.154  1.00  0.00     0.159 HD
ATOM     30  H   UNL     1       9.956  -1.296   2.249  1.00  0.00     0.159 HD
ENDBRANCH  23  28
ENDBRANCH   1  19
TORSDOF 6
