REMARK SMILES Cc1ccc(SCc2n[nH]c3c2[C@H](c2ccncc2)C(C#N)=C(N)O3)cc1
REMARK SMILES IDX 7 1 6 2 5 3 1 4 2 5 27 6 3 7 26 8 4 9 8 10 9 11 12 12 10 13
REMARK SMILES IDX 13 14 11 15 20 17 25 18 23 19 14 20 19 21 15 22 18 23 16 24
REMARK SMILES IDX 17 25 21 26 22 27 24 28
REMARK H PARENT 10 16 24 29 24 30
REMARK Flexibility Score: inf
ROOT
ATOM      1  C   UNL     1       0.050  -4.962  -1.785  1.00  0.00     0.133 C 
ENDROOT
BRANCH   1   2
ATOM      2  S   UNL     1       0.061  -4.533  -0.023  1.00  0.00    -0.120 SA
BRANCH   2   3
ATOM      3  C   UNL     1       0.039  -2.771  -0.013  1.00  0.00     0.008 A 
ATOM      4  C   UNL     1      -0.018   1.503   0.010  1.00  0.00     0.044 C 
ATOM      5  C   UNL     1       0.002  -0.004   0.002  1.00  0.00    -0.051 A 
ATOM      6  C   UNL     1       0.023  -0.700   1.197  1.00  0.00     0.004 A 
ATOM      7  C   UNL     1      -0.006  -0.688  -1.200  1.00  0.00     0.004 A 
ATOM      8  C   UNL     1       0.041  -2.081   1.193  1.00  0.00     0.015 A 
ATOM      9  C   UNL     1       0.018  -2.068  -1.212  1.00  0.00     0.015 A 
ENDBRANCH   2   3
ENDBRANCH   1   2
BRANCH   1  10
ATOM     10  C   UNL     1       0.068  -6.461  -1.937  1.00  0.00     0.081 A 
ATOM     11  N   UNL     1       1.139  -7.213  -2.031  1.00  0.00    -0.176 NA
ATOM     12  C   UNL     1      -1.046  -7.287  -2.009  1.00  0.00     0.051 A 
ATOM     13  N   UNL     1       0.732  -8.551  -2.155  1.00  0.00    -0.246 N 
ATOM     14  C   UNL     1      -2.507  -6.924  -1.955  1.00  0.00     0.103 C 
ATOM     15  C   UNL     1      -0.610  -8.575  -2.144  1.00  0.00     0.221 A 
ATOM     16  H   UNL     1       1.353  -9.368  -2.241  1.00  0.00     0.193 HD
ATOM     17  C   UNL     1      -3.308  -8.133  -2.369  1.00  0.00     0.102 C 
ATOM     18  O   UNL     1      -1.458  -9.629  -2.244  1.00  0.00    -0.422 OA
ATOM     19  C   UNL     1      -2.759  -9.363  -2.482  1.00  0.00     0.207 C 
BRANCH  14  20
ATOM     20  C   UNL     1      -2.880  -6.522  -0.551  1.00  0.00    -0.032 A 
ATOM     21  C   UNL     1      -3.381  -5.257  -0.285  1.00  0.00     0.025 A 
ATOM     22  C   UNL     1      -2.736  -7.410   0.504  1.00  0.00     0.025 A 
ATOM     23  C   UNL     1      -3.713  -4.924   1.015  1.00  0.00     0.111 A 
ATOM     24  C   UNL     1      -3.083  -7.004   1.778  1.00  0.00     0.111 A 
ATOM     25  N   UNL     1      -3.557  -5.793   1.995  1.00  0.00    -0.265 NA
ENDBRANCH  14  20
BRANCH  17  26
ATOM     26  C   UNL     1      -4.703  -7.973  -2.652  1.00  0.00     0.101 C 
ATOM     27  N   UNL     1      -5.809  -7.845  -2.878  1.00  0.00    -0.193 NA
ENDBRANCH  17  26
BRANCH  19  28
ATOM     28  N   UNL     1      -3.572 -10.402  -2.861  1.00  0.00    -0.369 N 
ATOM     29  H   UNL     1      -3.207 -11.359  -2.963  1.00  0.00     0.159 HD
ATOM     30  H   UNL     1      -4.568 -10.216  -3.046  1.00  0.00     0.159 HD
ENDBRANCH  19  28
ENDBRANCH   1  10
TORSDOF 6
