REMARK SMILES O=C1C[C@@]2(Cc3ccccc3)C[N@H+](Cc3ccccc3)C[C@@]([C@@H](O)C#Cc3ccccc3)(C1)[C@H]2O
REMARK SMILES IDX 4 1 3 2 2 3 1 4 33 5 22 6 34 7 21 8 13 9 12 10 5 12 6 13
REMARK SMILES IDX 9 14 10 15 8 16 11 17 7 18 35 19 23 21 25 22 26 23 27 24
REMARK SMILES IDX 32 25 28 26 31 27 29 28 30 29 24 30 14 32 15 33 20 34 16 35
REMARK SMILES IDX 19 36 17 37 18 38
REMARK H PARENT 13 11 35 20 24 31
REMARK Flexibility Score: inf
ROOT
ATOM      1  C   UNL     1      -2.891   1.837   0.067  1.00  0.00     0.057 C 
ATOM      2  C   UNL     1      -2.222   1.335   1.351  1.00  0.00     0.091 C 
ATOM      3  C   UNL     1      -0.729   1.577   1.247  1.00  0.00     0.134 C 
ATOM      4  O   UNL     1      -0.127   2.148   2.124  1.00  0.00    -0.300 OA
ATOM      5  C   UNL     1      -0.013   1.086   0.008  1.00  0.00     0.095 C 
ATOM      6  C   UNL     1      -0.762   1.597  -1.227  1.00  0.00     0.090 C 
ATOM      7  C   UNL     1      -2.229   1.173  -1.143  1.00  0.00     0.143 C 
ATOM      8  C   UNL     1      -0.671   3.123  -1.282  1.00  0.00     0.276 C 
ATOM      9  N   UNL     1      -1.304   3.697  -0.087  1.00  0.00    -0.330 N 
ATOM     10  C   UNL     1      -2.732   3.355  -0.031  1.00  0.00     0.273 C 
ATOM     11  H   UNL     1      -0.848   3.286   0.740  1.00  0.00     0.348 HD
ENDROOT
BRANCH   1  12
ATOM     12  C   UNL     1      -4.378   1.481   0.093  1.00  0.00     0.051 C 
BRANCH  12  13
ATOM     13  C   UNL     1      -5.030   2.135   1.284  1.00  0.00    -0.047 A 
ATOM     14  C   UNL     1      -6.226   3.335   3.469  1.00  0.00     0.000 A 
ATOM     15  C   UNL     1      -5.684   2.069   3.587  1.00  0.00     0.000 A 
ATOM     16  C   UNL     1      -6.170   4.001   2.260  1.00  0.00     0.000 A 
ATOM     17  C   UNL     1      -5.091   1.467   2.493  1.00  0.00     0.004 A 
ATOM     18  C   UNL     1      -5.572   3.401   1.167  1.00  0.00     0.004 A 
ENDBRANCH  12  13
ENDBRANCH   1  12
BRANCH   7  19
ATOM     19  O   UNL     1      -2.306  -0.248  -1.006  1.00  0.00    -0.391 OA
ATOM     20  H   UNL     1      -3.255  -0.525  -0.956  1.00  0.00     0.211 HD
ENDBRANCH   7  19
BRANCH   6  21
ATOM     21  C   UNL     1      -0.131   1.004  -2.488  1.00  0.00     0.204 C 
BRANCH  21  22
ATOM     22  C   UNL     1       1.282   1.409  -2.568  1.00  0.00    -0.065 C 
ATOM     23  C   UNL     1       2.409   1.733  -2.631  1.00  0.00    -0.064 C 
BRANCH  23  24
ATOM     24  C   UNL     1       3.783   2.128  -2.709  1.00  0.00     0.025 A 
ATOM     25  C   UNL     1       4.574   1.707  -3.779  1.00  0.00     0.017 A 
ATOM     26  C   UNL     1       4.335   2.941  -1.718  1.00  0.00     0.017 A 
ATOM     27  C   UNL     1       5.897   2.091  -3.848  1.00  0.00     0.001 A 
ATOM     28  C   UNL     1       5.662   3.314  -1.796  1.00  0.00     0.001 A 
ATOM     29  C   UNL     1       6.440   2.893  -2.859  1.00  0.00     0.000 A 
ENDBRANCH  23  24
ENDBRANCH  21  22
BRANCH  21  30
ATOM     30  O   UNL     1      -0.829   1.480  -3.640  1.00  0.00    -0.379 OA
ATOM     31  H   UNL     1      -0.771   2.468  -3.677  1.00  0.00     0.212 HD
ENDBRANCH  21  30
ENDBRANCH   6  21
BRANCH   9  32
ATOM     32  C   UNL     1      -1.109   5.152  -0.036  1.00  0.00     0.299 C 
BRANCH  32  33
ATOM     33  C   UNL     1       0.330   5.477  -0.341  1.00  0.00     0.006 A 
ATOM     34  C   UNL     1       0.726   5.702  -1.646  1.00  0.00     0.009 A 
ATOM     35  C   UNL     1       1.254   5.554   0.685  1.00  0.00     0.009 A 
ATOM     36  C   UNL     1       2.047   6.001  -1.926  1.00  0.00     0.001 A 
ATOM     37  C   UNL     1       2.575   5.848   0.405  1.00  0.00     0.001 A 
ATOM     38  C   UNL     1       2.971   6.074  -0.900  1.00  0.00     0.000 A 
ENDBRANCH  32  33
ENDBRANCH   9  32
TORSDOF 9
