REMARK SMILES CCOC(=O)N[C@@H](CCCC[NH3+])[C@H](O)c1noc(Cc2ccc(C(=O)NC3Cc4ccccc4C3)cc2)n1
REMARK SMILES IDX 7 1 6 2 4 3 5 4 3 6 2 7 1 8 8 9 9 10 10 11 11 12 12 13 13 17
REMARK SMILES IDX 15 18 16 19 38 20 17 21 18 22 19 23 20 24 37 25 21 26 36 27
REMARK SMILES IDX 22 28 23 29 24 30 25 31 26 32 27 34 35 35 28 36 34 37 29 38
REMARK SMILES IDX 33 39 30 40 32 41 31 42 14 43
REMARK H PARENT 6 5 12 14 12 15 12 16 26 33 14 44
REMARK Flexibility Score: inf
ROOT
ATOM      1  C   UNL     1      -0.019   1.526   0.010  1.00  0.00     0.122 C 
ENDROOT
BRANCH   1   2
ATOM      2  N   UNL     1       1.356   2.033   0.000  1.00  0.00    -0.316 N 
ATOM      3  C   UNL     1       1.627   3.256   0.497  1.00  0.00     0.407 C 
ATOM      4  O   UNL     1       0.731   3.938   0.954  1.00  0.00    -0.225 OA
ATOM      5  H   UNL     1       2.115   1.455  -0.387  1.00  0.00     0.167 HD
BRANCH   3   6
ATOM      6  O   UNL     1       2.890   3.722   0.488  1.00  0.00    -0.450 OA
BRANCH   6   7
ATOM      7  C   UNL     1       3.107   5.047   1.040  1.00  0.00     0.231 C 
ATOM      8  C   UNL     1       4.593   5.402   0.943  1.00  0.00     0.049 C 
ENDBRANCH   6   7
ENDBRANCH   3   6
ENDBRANCH   1   2
BRANCH   1   9
ATOM      9  C   UNL     1      -0.759   2.033  -1.229  1.00  0.00     0.028 C 
BRANCH   9  10
ATOM     10  C   UNL     1      -0.888   3.555  -1.158  1.00  0.00     0.008 C 
BRANCH  10  11
ATOM     11  C   UNL     1      -1.629   4.062  -2.398  1.00  0.00     0.061 C 
BRANCH  11  12
ATOM     12  C   UNL     1      -1.758   5.585  -2.327  1.00  0.00     0.258 C 
BRANCH  12  13
ATOM     13  N   UNL     1      -2.453   6.064  -3.535  1.00  0.00    -0.358 N 
ATOM     14  H   UNL     1      -3.391   5.643  -3.587  1.00  0.00     0.344 HD
ATOM     15  H   UNL     1      -1.912   5.806  -4.373  1.00  0.00     0.344 HD
ATOM     16  H   UNL     1      -2.542   7.090  -3.492  1.00  0.00     0.344 HD
ENDBRANCH  12  13
ENDBRANCH  11  12
ENDBRANCH  10  11
ENDBRANCH   9  10
ENDBRANCH   1   9
BRANCH   1  17
ATOM     17  C   UNL     1       0.002  -0.004   0.002  1.00  0.00     0.208 C 
BRANCH  17  18
ATOM     18  C   UNL     1      -1.405  -0.526   0.137  1.00  0.00     0.202 A 
ATOM     19  N   UNL     1      -2.314  -0.535  -0.792  1.00  0.00    -0.060 NA
ATOM     20  N   UNL     1      -1.949  -1.075   1.238  1.00  0.00    -0.193 NA
ATOM     21  O   UNL     1      -3.342  -1.022  -0.369  1.00  0.00    -0.339 OA
ATOM     22  C   UNL     1      -3.180  -1.381   0.908  1.00  0.00     0.231 A 
BRANCH  22  23
ATOM     23  C   UNL     1      -4.215  -2.022   1.797  1.00  0.00     0.136 C 
BRANCH  23  24
ATOM     24  C   UNL     1      -4.997  -0.951   2.511  1.00  0.00    -0.039 A 
ATOM     25  C   UNL     1      -6.145  -0.437   1.936  1.00  0.00     0.005 A 
ATOM     26  C   UNL     1      -4.566  -0.489   3.743  1.00  0.00     0.005 A 
ATOM     27  C   UNL     1      -6.865   0.545   2.584  1.00  0.00     0.014 A 
ATOM     28  C   UNL     1      -5.275   0.496   4.399  1.00  0.00     0.014 A 
ATOM     29  C   UNL     1      -6.434   1.020   3.824  1.00  0.00     0.039 A 
BRANCH  29  30
ATOM     30  C   UNL     1      -7.201   2.072   4.524  1.00  0.00     0.251 C 
ATOM     31  O   UNL     1      -8.210   2.526   4.020  1.00  0.00    -0.269 OA
ATOM     32  N   UNL     1      -6.781   2.528   5.721  1.00  0.00    -0.349 N 
ATOM     33  H   UNL     1      -5.927   2.143   6.148  1.00  0.00     0.164 HD
BRANCH  32  34
ATOM     34  C   UNL     1      -7.541   3.571   6.415  1.00  0.00     0.091 C 
ATOM     35  C   UNL     1      -7.297   3.506   7.937  1.00  0.00     0.061 C 
ATOM     36  C   UNL     1      -7.007   4.972   6.052  1.00  0.00     0.061 C 
ATOM     37  C   UNL     1      -7.312   4.947   8.402  1.00  0.00    -0.043 A 
ATOM     38  C   UNL     1      -7.146   5.789   7.319  1.00  0.00    -0.043 A 
ATOM     39  C   UNL     1      -7.460   5.479   9.672  1.00  0.00     0.004 A 
ATOM     40  C   UNL     1      -7.128   7.161   7.508  1.00  0.00     0.004 A 
ATOM     41  C   UNL     1      -7.442   6.847   9.859  1.00  0.00     0.000 A 
ATOM     42  C   UNL     1      -7.276   7.689   8.776  1.00  0.00     0.000 A 
ENDBRANCH  32  34
ENDBRANCH  29  30
ENDBRANCH  23  24
ENDBRANCH  22  23
ENDBRANCH  17  18
BRANCH  17  43
ATOM     43  O   UNL     1       0.566  -0.466  -1.227  1.00  0.00    -0.383 OA
ATOM     44  H   UNL     1       1.491  -0.124  -1.316  1.00  0.00     0.211 HD
ENDBRANCH  17  43
ENDBRANCH   1  17
TORSDOF 15
