REMARK SMILES CC(C)[C@@H](Sc1nnc(N2CCCCC2)n1Cc1ccco1)C(=O)Nc1sccc1C(N)=O
REMARK SMILES IDX 4 1 2 2 1 3 3 4 23 5 24 6 25 7 26 9 27 10 30 11 28 12 29 13
REMARK SMILES IDX 31 14 33 15 32 16 5 19 6 20 16 21 7 22 9 23 8 24 17 25 18 26
REMARK SMILES IDX 22 27 19 28 21 29 20 30 10 31 15 32 11 33 14 34 12 35 13 36
REMARK H PARENT 25 8 32 17 32 18
REMARK Flexibility Score: inf
ROOT
ATOM      1  C   UNL     1      -0.077   1.001   0.085  1.00  0.00     0.147 C 
ENDROOT
BRANCH   1   2
ATOM      2  C   UNL     1      -0.645   1.719   1.311  1.00  0.00     0.006 C 
ATOM      3  C   UNL     1      -0.053   1.105   2.581  1.00  0.00     0.009 C 
ATOM      4  C   UNL     1      -0.281   3.204   1.246  1.00  0.00     0.009 C 
ENDBRANCH   1   2
BRANCH   1   5
ATOM      5  C   UNL     1       1.404   1.260  -0.008  1.00  0.00     0.238 C 
ATOM      6  O   UNL     1       1.820   2.162  -0.704  1.00  0.00    -0.273 OA
ATOM      7  N   UNL     1       2.268   0.489   0.682  1.00  0.00    -0.316 N 
ATOM      8  H   UNL     1       1.915  -0.277   1.273  1.00  0.00     0.170 HD
BRANCH   7   9
ATOM      9  C   UNL     1       3.631   0.728   0.597  1.00  0.00     0.108 A 
ATOM     10  S   UNL     1       4.455   1.944  -0.320  1.00  0.00    -0.126 S 
ATOM     11  C   UNL     1       4.667   0.052   1.231  1.00  0.00     0.074 A 
ATOM     12  C   UNL     1       6.137   1.560   0.122  1.00  0.00     0.068 A 
ATOM     13  C   UNL     1       6.007   0.513   0.957  1.00  0.00     0.028 A 
BRANCH  11  14
ATOM     14  C   UNL     1       4.411  -1.077   2.132  1.00  0.00     0.251 C 
ATOM     15  O   UNL     1       3.269  -1.443   2.339  1.00  0.00    -0.269 OA
ATOM     16  N   UNL     1       5.441  -1.708   2.730  1.00  0.00    -0.366 N 
ATOM     17  H   UNL     1       6.407  -1.398   2.554  1.00  0.00     0.159 HD
ATOM     18  H   UNL     1       5.261  -2.501   3.362  1.00  0.00     0.159 HD
ENDBRANCH  11  14
ENDBRANCH   7   9
ENDBRANCH   1   5
BRANCH   1  19
ATOM     19  S   UNL     1      -0.894   1.622  -1.411  1.00  0.00    -0.072 SA
BRANCH  19  20
ATOM     20  C   UNL     1      -2.552   1.044  -1.262  1.00  0.00     0.193 A 
ATOM     21  N   UNL     1      -3.586   1.341  -2.106  1.00  0.00    -0.281 N 
ATOM     22  N   UNL     1      -3.010   0.249  -0.326  1.00  0.00    -0.121 NA
ATOM     23  C   UNL     1      -4.702   0.700  -1.649  1.00  0.00     0.228 A 
ATOM     24  N   UNL     1      -4.374   0.036  -0.568  1.00  0.00    -0.111 NA
BRANCH  21  25
ATOM     25  C   UNL     1      -3.509   2.196  -3.294  1.00  0.00     0.203 C 
BRANCH  25  26
ATOM     26  C   UNL     1      -3.275   1.342  -4.513  1.00  0.00     0.123 A 
ATOM     27  O   UNL     1      -2.076   0.994  -5.010  1.00  0.00    -0.467 OA
ATOM     28  C   UNL     1      -4.230   0.795  -5.286  1.00  0.00     0.047 A 
ATOM     29  C   UNL     1      -2.249   0.230  -6.101  1.00  0.00     0.195 A 
ATOM     30  C   UNL     1      -3.569   0.082  -6.312  1.00  0.00     0.042 A 
ENDBRANCH  25  26
ENDBRANCH  21  25
BRANCH  23  31
ATOM     31  N   UNL     1      -5.964   0.745  -2.227  1.00  0.00    -0.341 N 
ATOM     32  C   UNL     1      -6.461  -0.607  -2.511  1.00  0.00     0.119 C 
ATOM     33  C   UNL     1      -6.905   1.490  -1.380  1.00  0.00     0.119 C 
ATOM     34  C   UNL     1      -7.783  -0.515  -3.277  1.00  0.00     0.022 C 
ATOM     35  C   UNL     1      -8.240   1.645  -2.112  1.00  0.00     0.022 C 
ATOM     36  C   UNL     1      -8.803   0.258  -2.435  1.00  0.00     0.004 C 
ENDBRANCH  23  31
ENDBRANCH  19  20
ENDBRANCH   1  19
TORSDOF 9
