REMARK SMILES CCc1sc2nc(S[C@H](C(N)=O)c3ccccc3)n(Cc3ccc(C)cc3)c(=O)c2c1C
REMARK SMILES IDX 3 1 31 2 30 3 5 4 4 5 6 6 7 7 19 8 28 9 29 10 32 11 2 12
REMARK SMILES IDX 1 13 8 14 9 15 13 16 18 17 14 18 17 19 15 20 16 21 10 22
REMARK SMILES IDX 12 23 11 24 20 27 21 28 27 29 22 30 26 31 23 32 24 33 25 34
REMARK H PARENT 11 25 11 26
REMARK Flexibility Score: inf
ROOT
ATOM      1  C   UNL     1      -0.669   1.736   3.389  1.00  0.00     0.010 A 
ATOM      2  C   UNL     1       0.619   2.021   3.634  1.00  0.00    -0.022 A 
ATOM      3  C   UNL     1       1.380   1.161   4.524  1.00  0.00     0.080 A 
ATOM      4  C   UNL     1       0.663   0.070   5.050  1.00  0.00     0.132 A 
ATOM      5  S   UNL     1      -0.954   0.258   4.344  1.00  0.00    -0.120 S 
ATOM      6  N   UNL     1       1.222  -0.808   5.874  1.00  0.00    -0.213 NA
ATOM      7  C   UNL     1       2.484  -0.689   6.235  1.00  0.00     0.173 A 
ATOM      8  N   UNL     1       3.251   0.340   5.771  1.00  0.00    -0.283 N 
ATOM      9  C   UNL     1       2.746   1.264   4.934  1.00  0.00     0.263 A 
ATOM     10  O   UNL     1       3.445   2.178   4.529  1.00  0.00    -0.268 OA
ATOM     11  C   UNL     1       1.268   3.223   2.996  1.00  0.00     0.046 C 
ENDROOT
BRANCH   1  12
ATOM     12  C   UNL     1      -1.640   2.483   2.512  1.00  0.00     0.043 C 
ATOM     13  C   UNL     1      -1.570   1.930   1.087  1.00  0.00     0.010 C 
ENDBRANCH   1  12
BRANCH   7  14
ATOM     14  S   UNL     1       3.190  -1.875   7.330  1.00  0.00    -0.069 SA
BRANCH  14  15
ATOM     15  C   UNL     1       1.760  -2.952   7.593  1.00  0.00     0.173 C 
BRANCH  15  16
ATOM     16  C   UNL     1       2.170  -4.138   8.427  1.00  0.00    -0.025 A 
ATOM     17  C   UNL     1       1.864  -5.418   8.005  1.00  0.00     0.005 A 
ATOM     18  C   UNL     1       2.858  -3.947   9.611  1.00  0.00     0.005 A 
ATOM     19  C   UNL     1       2.241  -6.507   8.769  1.00  0.00     0.000 A 
ATOM     20  C   UNL     1       3.230  -5.035  10.377  1.00  0.00     0.000 A 
ATOM     21  C   UNL     1       2.924  -6.315   9.955  1.00  0.00     0.000 A 
ENDBRANCH  15  16
BRANCH  15  22
ATOM     22  C   UNL     1       0.678  -2.184   8.310  1.00  0.00     0.235 C 
ATOM     23  O   UNL     1      -0.394  -2.002   7.773  1.00  0.00    -0.274 OA
ATOM     24  N   UNL     1       0.903  -1.700   9.548  1.00  0.00    -0.368 N 
ATOM     25  H   UNL     1       1.814  -1.855  10.004  1.00  0.00     0.159 HD
ATOM     26  H   UNL     1       0.164  -1.176  10.037  1.00  0.00     0.159 HD
ENDBRANCH  15  22
ENDBRANCH  14  15
ENDBRANCH   7  14
BRANCH   8  27
ATOM     27  C   UNL     1       4.650   0.441   6.194  1.00  0.00     0.163 C 
BRANCH  27  28
ATOM     28  C   UNL     1       5.523  -0.317   5.228  1.00  0.00    -0.028 A 
ATOM     29  C   UNL     1       6.052   0.325   4.124  1.00  0.00     0.006 A 
ATOM     30  C   UNL     1       5.800  -1.654   5.449  1.00  0.00     0.006 A 
ATOM     31  C   UNL     1       6.853  -0.371   3.238  1.00  0.00     0.004 A 
ATOM     32  C   UNL     1       6.597  -2.350   4.561  1.00  0.00     0.004 A 
ATOM     33  C   UNL     1       7.125  -1.709   3.456  1.00  0.00    -0.051 A 
ATOM     34  C   UNL     1       7.997  -2.467   2.490  1.00  0.00     0.044 C 
ENDBRANCH  27  28
ENDBRANCH   8  27
TORSDOF 7
