REMARK SMILES Cc1ccc(-c2nn(-c3ccccc3)cc2/C=C/C(=O)O[C@H](C(=O)NC(N)=O)c2ccccc2)o1
REMARK SMILES IDX 19 1 20 2 18 3 17 4 16 5 6 6 7 7 8 8 15 9 5 10 1 11 2 12
REMARK SMILES IDX 35 13 3 14 4 15 9 16 14 17 10 18 13 19 11 20 12 21 21 22
REMARK SMILES IDX 22 23 29 24 34 25 30 26 33 27 31 28 32 29 23 30 24 31 25 32
REMARK SMILES IDX 26 33 28 35 27 36
REMARK H PARENT 25 34 27 37 27 38
REMARK Flexibility Score: inf
ROOT
ATOM      1  C   UNL     1      -4.716  -3.074   2.670  1.00  0.00     0.331 C 
ATOM      2  O   UNL     1      -4.272  -2.907   1.550  1.00  0.00    -0.247 OA
ENDROOT
BRANCH   1   3
ATOM      3  C   UNL     1      -4.412  -2.149   3.697  1.00  0.00     0.094 C 
ATOM      4  C   UNL     1      -3.626  -1.079   3.432  1.00  0.00     0.019 C 
BRANCH   4   5
ATOM      5  C   UNL     1      -3.311  -0.121   4.496  1.00  0.00     0.024 A 
ATOM      6  C   UNL     1      -2.479   1.085   4.378  1.00  0.00     0.135 A 
ATOM      7  N   UNL     1      -2.452   1.651   5.565  1.00  0.00    -0.164 NA
ATOM      8  N   UNL     1      -3.223   0.894   6.452  1.00  0.00    -0.240 N 
ATOM      9  C   UNL     1      -3.736  -0.171   5.811  1.00  0.00     0.124 A 
BRANCH   6  10
ATOM     10  C   UNL     1      -1.797   1.565   3.160  1.00  0.00     0.155 A 
ATOM     11  C   UNL     1      -0.013   1.086   0.008  1.00  0.00     0.087 C 
ATOM     12  C   UNL     1      -0.718   1.572   1.248  1.00  0.00     0.101 A 
ATOM     13  O   UNL     1      -1.249   0.791   2.203  1.00  0.00    -0.460 OA
ATOM     14  C   UNL     1      -0.916   2.862   1.585  1.00  0.00     0.046 A 
ATOM     15  C   UNL     1      -1.613   2.867   2.809  1.00  0.00     0.053 A 
ENDBRANCH   6  10
BRANCH   8  16
ATOM     16  C   UNL     1      -3.427   1.196   7.804  1.00  0.00     0.065 A 
ATOM     17  C   UNL     1      -2.845   2.328   8.359  1.00  0.00     0.028 A 
ATOM     18  C   UNL     1      -4.216   0.368   8.591  1.00  0.00     0.028 A 
ATOM     19  C   UNL     1      -3.048   2.624   9.693  1.00  0.00     0.002 A 
ATOM     20  C   UNL     1      -4.411   0.666   9.925  1.00  0.00     0.002 A 
ATOM     21  C   UNL     1      -3.830   1.794  10.475  1.00  0.00     0.000 A 
ENDBRANCH   8  16
ENDBRANCH   4   5
ENDBRANCH   1   3
BRANCH   1  22
ATOM     22  O   UNL     1      -5.500  -4.141   2.934  1.00  0.00    -0.444 OA
BRANCH  22  23
ATOM     23  C   UNL     1      -5.766  -5.033   1.850  1.00  0.00     0.296 C 
BRANCH  23  24
ATOM     24  C   UNL     1      -4.710  -6.107   1.813  1.00  0.00     0.002 A 
ATOM     25  C   UNL     1      -4.205  -6.539   0.600  1.00  0.00     0.008 A 
ATOM     26  C   UNL     1      -4.241  -6.657   2.991  1.00  0.00     0.008 A 
ATOM     27  C   UNL     1      -3.236  -7.524   0.566  1.00  0.00     0.000 A 
ATOM     28  C   UNL     1      -3.275  -7.645   2.957  1.00  0.00     0.000 A 
ATOM     29  C   UNL     1      -2.771  -8.077   1.744  1.00  0.00     0.000 A 
ENDBRANCH  23  24
BRANCH  23  30
ATOM     30  C   UNL     1      -7.120  -5.667   2.043  1.00  0.00     0.273 C 
ATOM     31  O   UNL     1      -7.790  -5.382   3.012  1.00  0.00    -0.270 OA
ATOM     32  N   UNL     1      -7.585  -6.550   1.137  1.00  0.00    -0.275 N 
ATOM     33  C   UNL     1      -8.796  -7.117   1.309  1.00  0.00     0.318 C 
ATOM     34  H   UNL     1      -7.016  -6.792   0.314  1.00  0.00     0.174 HD
ATOM     35  O   UNL     1      -9.468  -6.832   2.281  1.00  0.00    -0.249 OA
ATOM     36  N   UNL     1      -9.261  -8.001   0.404  1.00  0.00    -0.351 N 
ATOM     37  H   UNL     1      -8.692  -8.242  -0.420  1.00  0.00     0.161 HD
ATOM     38  H   UNL     1     -10.186  -8.434   0.535  1.00  0.00     0.161 HD
ENDBRANCH  23  30
ENDBRANCH  22  23
ENDBRANCH   1  22
TORSDOF 8
