REMARK SMILES CCOC(=O)c1c(NC(=O)CCCN2C(=O)/C(=C\c3cccs3)SC2=S)sc(C)c1C
REMARK SMILES IDX 8 1 9 2 10 3 7 5 6 6 30 7 27 8 28 9 31 10 29 11 4 12 5 13
REMARK SMILES IDX 3 14 2 15 1 16 11 17 12 18 13 19 14 20 25 21 15 22 24 23
REMARK SMILES IDX 26 24 16 25 17 26 18 27 19 28 23 29 20 30 22 31 21 32
REMARK H PARENT 8 4
REMARK Flexibility Score: inf
ROOT
ATOM      1  N   UNL     1      -5.529   2.701   2.085  1.00  0.00    -0.317 N 
ATOM      2  C   UNL     1      -5.640   3.087   3.372  1.00  0.00     0.225 C 
ATOM      3  O   UNL     1      -4.657   3.123   4.080  1.00  0.00    -0.275 OA
ATOM      4  H   UNL     1      -6.365   2.670   1.483  1.00  0.00     0.170 HD
ENDROOT
BRANCH   1   5
ATOM      5  C   UNL     1      -4.292   2.346   1.572  1.00  0.00     0.110 A 
ATOM      6  C   UNL     1      -3.978   1.931   0.282  1.00  0.00     0.098 A 
ATOM      7  C   UNL     1      -2.593   1.617   0.021  1.00  0.00    -0.021 A 
ATOM      8  S   UNL     1      -2.761   2.317   2.380  1.00  0.00    -0.122 S 
ATOM      9  C   UNL     1      -1.728   1.761   1.040  1.00  0.00     0.007 A 
ATOM     10  C   UNL     1      -2.136   1.152  -1.338  1.00  0.00     0.046 C 
ATOM     11  C   UNL     1      -0.242   1.511   1.047  1.00  0.00     0.057 C 
BRANCH   6  12
ATOM     12  C   UNL     1      -5.002   1.815  -0.758  1.00  0.00     0.341 C 
ATOM     13  O   UNL     1      -5.601   0.767  -0.908  1.00  0.00    -0.246 OA
BRANCH  12  14
ATOM     14  O   UNL     1      -5.280   2.870  -1.551  1.00  0.00    -0.462 OA
BRANCH  14  15
ATOM     15  C   UNL     1      -6.307   2.683  -2.561  1.00  0.00     0.230 C 
ATOM     16  C   UNL     1      -6.482   3.978  -3.356  1.00  0.00     0.049 C 
ENDBRANCH  14  15
ENDBRANCH  12  14
ENDBRANCH   6  12
ENDBRANCH   1   5
BRANCH   2  17
ATOM     17  C   UNL     1      -6.986   3.474   3.929  1.00  0.00     0.102 C 
BRANCH  17  18
ATOM     18  C   UNL     1      -6.834   3.868   5.400  1.00  0.00     0.032 C 
BRANCH  18  19
ATOM     19  C   UNL     1      -8.200   4.260   5.966  1.00  0.00     0.128 C 
BRANCH  19  20
ATOM     20  N   UNL     1      -8.055   4.638   7.374  1.00  0.00    -0.293 N 
ATOM     21  C   UNL     1      -8.183   3.694   8.333  1.00  0.00     0.148 C 
ATOM     22  C   UNL     1      -7.806   5.897   7.688  1.00  0.00     0.266 C 
ATOM     23  S   UNL     1      -7.925   4.632   9.831  1.00  0.00    -0.054 SA
ATOM     24  S   UNL     1      -8.508   2.022   8.156  1.00  0.00    -0.052 S 
ATOM     25  O   UNL     1      -7.696   6.749   6.825  1.00  0.00    -0.268 OA
ATOM     26  C   UNL     1      -7.671   6.229   9.071  1.00  0.00     0.081 C 
ATOM     27  C   UNL     1      -7.417   7.436   9.652  1.00  0.00     0.040 C 
BRANCH  27  28
ATOM     28  C   UNL     1      -7.074   8.549   8.850  1.00  0.00     0.028 A 
ATOM     29  S   UNL     1      -6.155   8.593   7.321  1.00  0.00    -0.144 S 
ATOM     30  C   UNL     1      -7.370   9.894   9.043  1.00  0.00     0.020 A 
ATOM     31  C   UNL     1      -6.202  10.303   7.037  1.00  0.00     0.065 A 
ATOM     32  C   UNL     1      -6.905  10.776   8.100  1.00  0.00     0.012 A 
ENDBRANCH  27  28
ENDBRANCH  19  20
ENDBRANCH  18  19
ENDBRANCH  17  18
ENDBRANCH   2  17
TORSDOF 9
