REMARK SMILES O=C1NC(c2ccc(/N=C/c3ccccc3O)cc2)(c2ccc(/N=C/c3ccccc3O)cc2)c2ccccc21
REMARK SMILES IDX 4 1 35 2 36 3 37 4 38 5 39 6 40 7 2 8 1 9 3 10 20 12 23 13
REMARK SMILES IDX 33 14 22 15 34 16 21 17 24 18 25 19 26 20 28 21 27 22 29 23
REMARK SMILES IDX 30 24 31 25 32 26 5 28 19 29 6 30 18 31 7 32 8 33 9 34 10 35
REMARK SMILES IDX 11 36 16 37 12 38 15 39 13 40 14 41 17 42
REMARK H PARENT 3 11 32 27 17 43
REMARK Flexibility Score: inf
ROOT
ATOM      1  C   UNL     1       2.176   0.828  -0.014  1.00  0.00     0.117 C 
ATOM      2  C   UNL     1       1.334  -0.424  -0.013  1.00  0.00    -0.001 A 
ATOM      3  C   UNL     1       1.640  -1.765  -0.022  1.00  0.00     0.008 A 
ATOM      4  C   UNL     1       0.623  -2.706  -0.017  1.00  0.00     0.000 A 
ATOM      5  C   UNL     1      -0.700  -2.301  -0.002  1.00  0.00     0.001 A 
ATOM      6  C   UNL     1      -1.017  -0.959   0.007  1.00  0.00     0.014 A 
ATOM      7  C   UNL     1       0.002  -0.004   0.002  1.00  0.00     0.046 A 
ATOM      8  C   UNL     1      -0.018   1.471   0.010  1.00  0.00     0.252 C 
ATOM      9  O   UNL     1      -1.025   2.152   0.019  1.00  0.00    -0.269 OA
ATOM     10  N   UNL     1       1.236   1.954   0.001  1.00  0.00    -0.334 N 
ATOM     11  H   UNL     1       1.495   2.951   0.004  1.00  0.00     0.165 HD
ENDROOT
BRANCH   1  12
ATOM     12  C   UNL     1       3.050   0.865   1.213  1.00  0.00    -0.013 A 
ATOM     13  C   UNL     1       4.655   0.934   3.469  1.00  0.00     0.063 A 
ATOM     14  C   UNL     1       4.283  -0.290   2.910  1.00  0.00     0.029 A 
ATOM     15  C   UNL     1       4.214   2.124   2.885  1.00  0.00     0.029 A 
ATOM     16  C   UNL     1       3.479  -0.317   1.790  1.00  0.00     0.009 A 
ATOM     17  C   UNL     1       3.414   2.082   1.762  1.00  0.00     0.009 A 
BRANCH  13  18
ATOM     18  N   UNL     1       5.448   0.969   4.584  1.00  0.00    -0.256 NA
ATOM     19  C   UNL     1       5.199   0.173   5.586  1.00  0.00     0.123 C 
BRANCH  19  20
ATOM     20  C   UNL     1       6.051   0.210   6.783  1.00  0.00     0.035 A 
ATOM     21  C   UNL     1       6.590  -0.603   8.980  1.00  0.00     0.001 A 
ATOM     22  C   UNL     1       5.784  -0.638   7.863  1.00  0.00     0.013 A 
ATOM     23  C   UNL     1       7.657   0.278   9.044  1.00  0.00     0.004 A 
ATOM     24  C   UNL     1       7.929   1.125   7.987  1.00  0.00     0.047 A 
ATOM     25  C   UNL     1       7.133   1.100   6.853  1.00  0.00     0.124 A 
BRANCH  25  26
ATOM     26  O   UNL     1       7.400   1.931   5.814  1.00  0.00    -0.507 OA
ATOM     27  H   UNL     1       8.338   1.734   5.565  1.00  0.00     0.293 HD
ENDBRANCH  25  26
ENDBRANCH  19  20
ENDBRANCH  13  18
ENDBRANCH   1  12
BRANCH   1  28
ATOM     28  C   UNL     1       3.027   0.878  -1.257  1.00  0.00    -0.013 A 
ATOM     29  C   UNL     1       3.382   2.100  -1.800  1.00  0.00     0.009 A 
ATOM     30  C   UNL     1       3.455  -0.299  -1.847  1.00  0.00     0.009 A 
ATOM     31  C   UNL     1       4.161   2.154  -2.937  1.00  0.00     0.029 A 
ATOM     32  C   UNL     1       4.229  -0.260  -2.987  1.00  0.00     0.029 A 
ATOM     33  C   UNL     1       4.591   0.970  -3.541  1.00  0.00     0.063 A 
BRANCH  33  34
ATOM     34  N   UNL     1       5.365   1.016  -4.669  1.00  0.00    -0.256 NA
ATOM     35  C   UNL     1       6.414   0.249  -4.771  1.00  0.00     0.123 C 
BRANCH  35  36
ATOM     36  C   UNL     1       7.245   0.298  -5.983  1.00  0.00     0.035 A 
ATOM     37  C   UNL     1       6.912   1.169  -7.032  1.00  0.00     0.124 A 
ATOM     38  C   UNL     1       8.374  -0.519  -6.096  1.00  0.00     0.013 A 
ATOM     39  C   UNL     1       7.703   1.206  -8.170  1.00  0.00     0.047 A 
ATOM     40  C   UNL     1       9.145  -0.472  -7.237  1.00  0.00     0.001 A 
ATOM     41  C   UNL     1       8.813   0.390  -8.270  1.00  0.00     0.004 A 
BRANCH  37  42
ATOM     42  O   UNL     1       5.821   1.970  -6.934  1.00  0.00    -0.507 OA
ATOM     43  H   UNL     1       5.963   2.489  -6.103  1.00  0.00     0.293 HD
ENDBRANCH  37  42
ENDBRANCH  35  36
ENDBRANCH  33  34
ENDBRANCH   1  28
TORSDOF 8
