REMARK SMILES Cc1ccc(S(=O)(=O)NCc2ccc(C(=O)NCc3ccc(C[NH+]4CCCC4)cc3)cc2)cc1C
REMARK SMILES IDX 11 1 12 2 13 3 14 4 31 5 32 6 10 7 9 8 6 10 7 11 8 12 5 13
REMARK SMILES IDX 1 14 2 15 34 16 3 17 33 18 35 19 4 20 15 21 16 22 17 23
REMARK SMILES IDX 18 25 19 26 30 27 20 28 29 29 21 30 22 31 23 32 24 33 28 34
REMARK SMILES IDX 25 35 27 37 26 38
REMARK H PARENT 9 9 17 24 24 36
REMARK Flexibility Score: inf
ROOT
ATOM      1  C   UNL     1       1.170   2.086   0.002  1.00  0.00    -0.033 A 
ATOM      2  C   UNL     1      -0.017   1.375   0.010  1.00  0.00     0.006 A 
ATOM      3  C   UNL     1       0.002  -0.004   0.002  1.00  0.00     0.014 A 
ATOM      4  C   UNL     1       1.222  -0.682  -0.013  1.00  0.00     0.039 A 
ATOM      5  C   UNL     1       2.416   0.041  -0.021  1.00  0.00     0.014 A 
ATOM      6  C   UNL     1       2.383   1.420  -0.013  1.00  0.00     0.006 A 
ENDROOT
BRANCH   1   7
ATOM      7  C   UNL     1       1.142   3.593   0.010  1.00  0.00     0.134 C 
BRANCH   7   8
ATOM      8  N   UNL     1       1.146   4.074   1.394  1.00  0.00    -0.207 NA
ATOM      9  H   UNL     1       0.934   3.426   2.165  1.00  0.00     0.141 HD
BRANCH   8  10
ATOM     10  S   UNL     1       1.490   5.662   1.717  1.00  0.00     0.240 S 
ATOM     11  O   UNL     1       1.389   5.820   3.126  1.00  0.00    -0.207 OA
ATOM     12  O   UNL     1       2.676   5.974   0.999  1.00  0.00    -0.207 OA
BRANCH  10  13
ATOM     13  C   UNL     1       0.201   6.630   1.008  1.00  0.00     0.082 A 
ATOM     14  C   UNL     1      -2.926   8.977  -0.713  1.00  0.00     0.044 C 
ATOM     15  C   UNL     1      -1.823   8.149  -0.106  1.00  0.00    -0.048 A 
ATOM     16  C   UNL     1      -1.935   7.696   1.194  1.00  0.00    -0.047 A 
ATOM     17  C   UNL     1      -0.698   7.844  -0.850  1.00  0.00     0.005 A 
ATOM     18  C   UNL     1      -0.923   6.935   1.751  1.00  0.00     0.025 A 
ATOM     19  C   UNL     1      -3.161   8.029   2.006  1.00  0.00     0.044 C 
ATOM     20  C   UNL     1       0.316   7.089  -0.292  1.00  0.00     0.022 A 
ENDBRANCH  10  13
ENDBRANCH   8  10
ENDBRANCH   7   8
ENDBRANCH   1   7
BRANCH   4  21
ATOM     21  C   UNL     1       1.250  -2.160  -0.021  1.00  0.00     0.251 C 
ATOM     22  O   UNL     1       0.208  -2.788  -0.014  1.00  0.00    -0.269 OA
ATOM     23  N   UNL     1       2.429  -2.812  -0.036  1.00  0.00    -0.348 N 
ATOM     24  H   UNL     1       3.311  -2.281  -0.042  1.00  0.00     0.164 HD
BRANCH  23  25
ATOM     25  C   UNL     1       2.456  -4.277  -0.043  1.00  0.00     0.152 C 
BRANCH  25  26
ATOM     26  C   UNL     1       3.886  -4.753  -0.060  1.00  0.00    -0.029 A 
ATOM     27  C   UNL     1       4.554  -4.977   1.130  1.00  0.00     0.006 A 
ATOM     28  C   UNL     1       4.529  -4.970  -1.264  1.00  0.00     0.006 A 
ATOM     29  C   UNL     1       5.865  -5.413   1.115  1.00  0.00     0.010 A 
ATOM     30  C   UNL     1       5.841  -5.402  -1.279  1.00  0.00     0.010 A 
ATOM     31  C   UNL     1       6.509  -5.626  -0.089  1.00  0.00     0.006 A 
BRANCH  31  32
ATOM     32  C   UNL     1       7.939  -6.101  -0.106  1.00  0.00     0.299 C 
BRANCH  32  33
ATOM     33  N   UNL     1       7.968  -7.569  -0.112  1.00  0.00    -0.331 N 
ATOM     34  C   UNL     1       9.335  -8.072  -0.368  1.00  0.00     0.262 C 
ATOM     35  C   UNL     1       7.125  -8.113  -1.208  1.00  0.00     0.262 C 
ATOM     36  H   UNL     1       7.624  -7.869   0.811  1.00  0.00     0.348 HD
ATOM     37  C   UNL     1       9.194  -9.370  -1.184  1.00  0.00     0.067 C 
ATOM     38  C   UNL     1       7.674  -9.550  -1.397  1.00  0.00     0.067 C 
ENDBRANCH  32  33
ENDBRANCH  31  32
ENDBRANCH  25  26
ENDBRANCH  23  25
ENDBRANCH   4  21
TORSDOF 9
