REMARK SMILES Cc1cc(I)cc([C@H]2N=C(O)c3c(sc4c3CC[N@@H+](C(C)C)C4)N2)c1O
REMARK SMILES IDX 8 1 24 2 13 3 12 4 16 5 15 6 14 7 23 8 18 9 17 10 10 11 9 12
REMARK SMILES IDX 19 13 7 16 1 17 2 18 25 19 3 20 4 21 6 22 5 23 26 24 11 26
REMARK SMILES IDX 20 28 21 29 22 30
REMARK H PARENT 24 14 19 15 26 25 11 27
REMARK Flexibility Score: inf
ROOT
ATOM      1  C   UNL     1      -0.103  -6.827   1.720  1.00  0.00     0.237 C 
ATOM      2  N   UNL     1       1.089  -5.960   1.769  1.00  0.00    -0.351 N 
ATOM      3  C   UNL     1       0.885  -4.628   1.503  1.00  0.00     0.104 A 
ATOM      4  C   UNL     1      -0.201  -4.171   0.743  1.00  0.00     0.075 A 
ATOM      5  C   UNL     1      -0.272  -2.737   0.543  1.00  0.00    -0.008 A 
ATOM      6  C   UNL     1       0.717  -2.013   1.120  1.00  0.00     0.065 A 
ATOM      7  S   UNL     1       1.746  -3.210   1.925  1.00  0.00    -0.116 S 
ATOM      8  C   UNL     1       0.878  -0.527   1.068  1.00  0.00     0.310 C 
ATOM      9  C   UNL     1      -1.356  -0.550   0.132  1.00  0.00     0.267 C 
ATOM     10  C   UNL     1      -1.366  -2.032  -0.252  1.00  0.00     0.099 C 
ATOM     11  C   UNL     1      -1.139  -5.196   0.217  1.00  0.00     0.219 C 
ATOM     12  N   UNL     1      -1.024  -6.415   0.668  1.00  0.00    -0.221 NA
ATOM     13  N   UNL     1       0.012  -0.013  -0.021  1.00  0.00    -0.328 N 
ATOM     14  H   UNL     1       2.023  -6.333   1.991  1.00  0.00     0.163 HD
ATOM     15  H   UNL     1       0.394  -0.320  -0.927  1.00  0.00     0.348 HD
ENDROOT
BRANCH   1  16
ATOM     16  C   UNL     1      -0.813  -6.763   3.048  1.00  0.00     0.040 A 
ATOM     17  C   UNL     1      -4.298  -7.270   4.430  1.00  0.00     0.048 C 
ATOM     18  C   UNL     1      -2.822  -6.974   4.346  1.00  0.00    -0.008 A 
ATOM     19  C   UNL     1      -2.172  -7.029   3.122  1.00  0.00     0.125 A 
ATOM     20  C   UNL     1      -2.117  -6.645   5.487  1.00  0.00     0.022 A 
ATOM     21  C   UNL     1      -0.763  -6.373   5.410  1.00  0.00     0.014 A 
ATOM     22  C   UNL     1      -0.112  -6.433   4.191  1.00  0.00     0.026 A 
ATOM     23  I   UNL     1       0.304  -5.873   7.142  1.00  0.00    -0.044 I 
BRANCH  19  24
ATOM     24  O   UNL     1      -2.865  -7.349   1.997  1.00  0.00    -0.507 OA
ATOM     25  H   UNL     1      -3.600  -6.687   1.953  1.00  0.00     0.293 HD
ENDBRANCH  19  24
ENDBRANCH   1  16
BRANCH  11  26
ATOM     26  O   UNL     1      -2.082  -4.876  -0.699  1.00  0.00    -0.493 OA
ATOM     27  H   UNL     1      -1.570  -4.473  -1.445  1.00  0.00     0.295 HD
ENDBRANCH  11  26
BRANCH  13  28
ATOM     28  C   UNL     1      -0.018   1.465   0.010  1.00  0.00     0.178 C 
ATOM     29  C   UNL     1       1.417   1.994  -0.001  1.00  0.00     0.075 C 
ATOM     30  C   UNL     1      -0.758   1.972  -1.229  1.00  0.00     0.075 C 
ENDBRANCH  13  28
TORSDOF 4
