REMARK SMILES Cc1ccc2c(c1)nc1c([n+]2-c2ccc(C(N)=O)cc2)C/C(=N\C2CCCCCCC2)C(Nc2ccc(Cl)cc2)=C1
REMARK SMILES IDX 25 1 24 2 23 3 1 4 2 5 7 6 3 7 6 8 4 9 5 10 8 11 11 12 9 13
REMARK SMILES IDX 10 14 41 15 21 16 32 17 22 18 12 19 20 20 13 21 19 22 14 23
REMARK SMILES IDX 15 24 16 25 18 26 17 27 33 30 34 32 40 33 35 34 39 35 36 36
REMARK SMILES IDX 37 37 38 38 31 39 30 40 29 41 26 43 27 44 28 45
REMARK H PARENT 17 28 17 29 33 31
REMARK Flexibility Score: 80.00
ROOT
ATOM      1  C   UNL     1       7.972   4.210  -1.386  1.00  0.00     0.027 C 
ENDROOT
BRANCH   1   2
ATOM      2  C   UNL     1       7.102   4.563  -0.178  1.00  0.00     0.105 C 
BRANCH   2   3
ATOM      3  N   UNL     1       5.886   3.746  -0.197  1.00  0.00    -0.284 NA
ATOM      4  C   UNL     1      -1.886  10.024  -0.531  1.00  0.00     0.044 C 
ATOM      5  C   UNL     1      -0.528   9.375  -0.444  1.00  0.00    -0.048 A 
ATOM      6  C   UNL     1      -0.426   8.021  -0.521  1.00  0.00     0.038 A 
ATOM      7  C   UNL     1       0.605  10.171  -0.287  1.00  0.00     0.010 A 
ATOM      8  C   UNL     1       0.840   7.407  -0.441  1.00  0.00     0.136 A 
ATOM      9  C   UNL     1       1.844   9.614  -0.205  1.00  0.00     0.082 A 
ATOM     10  C   UNL     1       1.991   8.219  -0.280  1.00  0.00     0.237 A 
ATOM     11  N   UNL     1       0.945   6.077  -0.515  1.00  0.00    -0.235 NA
ATOM     12  N   UNL     1       3.213   7.663  -0.201  1.00  0.00    -0.153 N 
ATOM     13  C   UNL     1       2.135   5.497  -0.440  1.00  0.00     0.134 A 
ATOM     14  C   UNL     1       3.338   6.329  -0.274  1.00  0.00     0.219 A 
ATOM     15  C   UNL     1       2.260   4.092  -0.523  1.00  0.00     0.063 C 
ATOM     16  C   UNL     1       4.591   5.723  -0.194  1.00  0.00     0.169 C 
ATOM     17  C   UNL     1       3.483   3.511  -0.439  1.00  0.00     0.063 C 
ATOM     18  C   UNL     1       4.691   4.331  -0.273  1.00  0.00     0.069 C 
BRANCH  12  19
ATOM     19  C   UNL     1       4.321   8.452  -0.046  1.00  0.00     0.211 A 
ATOM     20  C   UNL     1       4.692   9.342  -1.060  1.00  0.00     0.080 A 
ATOM     21  C   UNL     1       5.078   8.373   1.127  1.00  0.00     0.080 A 
ATOM     22  C   UNL     1       5.797  10.129  -0.906  1.00  0.00     0.021 A 
ATOM     23  C   UNL     1       6.187   9.155   1.278  1.00  0.00     0.021 A 
ATOM     24  C   UNL     1       6.558  10.045   0.265  1.00  0.00     0.040 A 
BRANCH  24  25
ATOM     25  C   UNL     1       7.752  10.895   0.431  1.00  0.00     0.248 C 
ATOM     26  O   UNL     1       8.075  11.668  -0.450  1.00  0.00    -0.270 OA
ATOM     27  N   UNL     1       8.485  10.814   1.559  1.00  0.00    -0.366 N 
ATOM     28  H   UNL     1       8.212  10.159   2.305  1.00  0.00     0.159 HD
ATOM     29  H   UNL     1       9.319  11.408   1.675  1.00  0.00     0.159 HD
ENDBRANCH  24  25
ENDBRANCH  12  19
BRANCH  17  30
ATOM     30  N   UNL     1       3.596   2.127  -0.517  1.00  0.00    -0.354 N 
ATOM     31  H   UNL     1       4.451   1.700  -0.900  1.00  0.00     0.167 HD
BRANCH  30  32
ATOM     32  C   UNL     1       2.547   1.315  -0.075  1.00  0.00     0.039 A 
ATOM     33  C   UNL     1       2.319   0.084  -0.678  1.00  0.00     0.027 A 
ATOM     34  C   UNL     1       1.732   1.737   0.967  1.00  0.00     0.027 A 
ATOM     35  C   UNL     1       1.283  -0.716  -0.239  1.00  0.00     0.022 A 
ATOM     36  C   UNL     1       0.697   0.932   1.402  1.00  0.00     0.022 A 
ATOM     37  C   UNL     1       0.472  -0.293   0.800  1.00  0.00     0.041 A 
ATOM     38  Cl  UNL     1      -0.830  -1.302   1.349  1.00  0.00    -0.084 Cl
ENDBRANCH  30  32
ENDBRANCH  17  30
ENDBRANCH   2   3
BRANCH   2  39
ATOM     39  C   UNL     1       7.881   4.289   1.109  1.00  0.00     0.027 C 
BRANCH  39  40
ATOM     40  C   UNL     1       8.913   5.397   1.326  1.00  0.00     0.002 C 
BRANCH  40  41
ATOM     41  C   UNL     1       8.271   6.756   1.045  1.00  0.00     0.000 CG0
ATOM     42  G   UNL     1       8.907   7.374  -0.202  1.00  0.00     0.000 G0
ENDBRANCH  40  41
ENDBRANCH  39  40
ENDBRANCH   2  39
ENDBRANCH   1   2
BRANCH   1  43
ATOM     43  C   UNL     1       9.020   5.304  -1.597  1.00  0.00     0.002 C 
BRANCH  43  44
ATOM     44  C   UNL     1       8.361   6.677  -1.450  1.00  0.00     0.000 C 
BRANCH  44  45
ATOM     45  C   UNL     1       8.907   7.374  -0.202  1.00  0.00     0.000 CG0
ATOM     46  G   UNL     1       8.271   6.756   1.045  1.00  0.00     0.000 G0
ENDBRANCH  44  45
ENDBRANCH  43  44
ENDBRANCH   1  43
TORSDOF 5
