REMARK SMILES Cc1cc(/C=C(\C#N)C(=O)O[C@H](C(N)=O)c2ccc(F)cc2)c(C)n1-c1ccc(Br)cc1
REMARK SMILES IDX 9 1 10 2 6 3 5 4 4 5 1 6 2 7 25 8 3 9 23 10 24 11 26 12
REMARK SMILES IDX 32 13 27 14 31 15 28 16 29 17 30 18 7 19 8 20 11 21 12 22
REMARK SMILES IDX 16 23 22 24 17 25 21 26 18 27 19 28 20 29 13 30 15 31 14 32
REMARK H PARENT 14 33 14 34
REMARK Flexibility Score: inf
ROOT
ATOM      1  C   UNL     1       1.485   5.537  -0.198  1.00  0.00     0.350 C 
ATOM      2  O   UNL     1       2.682   5.747  -0.209  1.00  0.00    -0.245 OA
ENDROOT
BRANCH   1   3
ATOM      3  C   UNL     1       0.982   4.162  -0.090  1.00  0.00     0.138 C 
ATOM      4  C   UNL     1       1.870   3.107   0.001  1.00  0.00     0.037 C 
BRANCH   4   5
ATOM      5  C   UNL     1       1.391   1.773  -0.041  1.00  0.00    -0.003 A 
ATOM      6  C   UNL     1      -1.091  -0.921  -0.722  1.00  0.00     0.065 C 
ATOM      7  C   UNL     1       0.061  -0.017  -0.368  1.00  0.00     0.020 A 
ATOM      8  N   UNL     1       1.260  -0.427   0.149  1.00  0.00    -0.318 N 
ATOM      9  C   UNL     1       0.074   1.318  -0.509  1.00  0.00     0.031 A 
ATOM     10  C   UNL     1       2.070   0.630   0.352  1.00  0.00     0.027 A 
ATOM     11  C   UNL     1       3.469   0.579   0.908  1.00  0.00     0.065 C 
BRANCH   8  12
ATOM     12  C   UNL     1       1.597  -1.758   0.428  1.00  0.00     0.046 A 
ATOM     13  C   UNL     1       1.704  -2.680  -0.606  1.00  0.00     0.028 A 
ATOM     14  C   UNL     1       1.830  -2.157   1.737  1.00  0.00     0.028 A 
ATOM     15  C   UNL     1       2.037  -3.991  -0.328  1.00  0.00     0.018 A 
ATOM     16  C   UNL     1       2.157  -3.471   2.010  1.00  0.00     0.018 A 
ATOM     17  C   UNL     1       2.263  -4.387   0.978  1.00  0.00     0.018 A 
ATOM     18  Br  UNL     1       2.719  -6.184   1.354  1.00  0.00    -0.051 Br
ENDBRANCH   8  12
ENDBRANCH   4   5
BRANCH   3  19
ATOM     19  C   UNL     1      -0.428   3.915  -0.077  1.00  0.00     0.107 C 
ATOM     20  N   UNL     1      -1.547   3.718  -0.067  1.00  0.00    -0.192 NA
ENDBRANCH   3  19
ENDBRANCH   1   3
BRANCH   1  21
ATOM     21  O   UNL     1       0.618   6.567  -0.286  1.00  0.00    -0.443 OA
BRANCH  21  22
ATOM     22  C   UNL     1       1.187   7.899  -0.391  1.00  0.00     0.295 C 
BRANCH  22  23
ATOM     23  C   UNL     1       0.255   8.782  -1.180  1.00  0.00     0.002 A 
ATOM     24  C   UNL     1       0.766   9.686  -2.092  1.00  0.00     0.011 A 
ATOM     25  C   UNL     1      -1.112   8.684  -0.995  1.00  0.00     0.011 A 
ATOM     26  C   UNL     1      -0.087  10.496  -2.817  1.00  0.00     0.039 A 
ATOM     27  C   UNL     1      -1.967   9.497  -1.714  1.00  0.00     0.039 A 
ATOM     28  C   UNL     1      -1.456  10.402  -2.628  1.00  0.00     0.123 A 
ATOM     29  F   UNL     1      -2.291  11.193  -3.336  1.00  0.00    -0.207 F 
ENDBRANCH  22  23
BRANCH  22  30
ATOM     30  C   UNL     1       1.375   8.474   0.989  1.00  0.00     0.263 C 
ATOM     31  O   UNL     1       1.062   7.825   1.965  1.00  0.00    -0.271 OA
ATOM     32  N   UNL     1       1.893   9.710   1.139  1.00  0.00    -0.366 N 
ATOM     33  H   UNL     1       2.159  10.261   0.311  1.00  0.00     0.159 HD
ATOM     34  H   UNL     1       2.022  10.103   2.083  1.00  0.00     0.159 HD
ENDBRANCH  22  30
ENDBRANCH  21  22
ENDBRANCH   1  21
TORSDOF 8
