REMARK SMILES CC(=O)O[C@H]1C[C@]2(C)[C@H](CC[C@H]3[C@H]4CC[C@H](OC(C)=O)[C@]4(C)CC[C@H]32)CC12SCCS2
REMARK SMILES IDX 16 1 15 2 14 3 13 4 21 5 23 6 24 7 25 8 12 9 11 10 10 11
REMARK SMILES IDX 9 12 7 13 6 14 5 15 27 16 26 17 28 18 29 19 30 20 31 21 8 22
REMARK SMILES IDX 22 23 17 24 18 25 19 26 20 27 4 28 2 29 3 30 1 31
REMARK H PARENT
REMARK Flexibility Score: inf
ROOT
ATOM      1  C   UNL     1      -8.261   2.810   1.616  1.00  0.00     0.182 C 
ATOM      2  C   UNL     1      -7.973   1.952   2.873  1.00  0.00     0.046 C 
ATOM      3  C   UNL     1      -6.454   1.633   2.847  1.00  0.00     0.008 C 
ATOM      4  C   UNL     1      -6.099   1.772   1.363  1.00  0.00     0.002 C 
ATOM      5  C   UNL     1      -6.900   3.037   0.972  1.00  0.00     0.008 C 
ATOM      6  C   UNL     1      -6.897   3.101  -0.545  1.00  0.00     0.011 C 
ATOM      7  C   UNL     1      -5.456   3.368  -0.966  1.00  0.00     0.005 C 
ATOM      8  C   UNL     1      -4.451   2.371  -0.426  1.00  0.00    -0.001 C 
ATOM      9  C   UNL     1      -4.653   1.981   1.025  1.00  0.00    -0.004 C 
ATOM     10  C   UNL     1      -3.994   3.010   1.940  1.00  0.00     0.004 C 
ATOM     11  C   UNL     1      -2.478   2.880   1.821  1.00  0.00     0.004 C 
ATOM     12  C   UNL     1      -2.078   2.361   0.414  1.00  0.00    -0.002 C 
ATOM     13  C   UNL     1      -3.033   2.924  -0.632  1.00  0.00    -0.023 C 
ATOM     14  C   UNL     1      -2.581   2.519  -2.040  1.00  0.00     0.055 C 
ATOM     15  C   UNL     1      -1.171   3.050  -2.308  1.00  0.00     0.203 C 
ATOM     16  C   UNL     1      -0.221   2.482  -1.268  1.00  0.00     0.098 C 
ATOM     17  C   UNL     1      -0.648   2.848   0.139  1.00  0.00     0.037 C 
ATOM     18  S   UNL     1       1.489   3.058  -1.589  1.00  0.00    -0.139 SA
ATOM     19  C   UNL     1       2.487   1.555  -1.249  1.00  0.00     0.082 C 
ATOM     20  C   UNL     1       1.684   0.386  -1.874  1.00  0.00     0.082 C 
ATOM     21  S   UNL     1      -0.074   0.670  -1.453  1.00  0.00    -0.139 SA
ATOM     22  C   UNL     1      -3.061   4.450  -0.525  1.00  0.00     0.012 C 
ATOM     23  C   UNL     1      -6.233   4.281   1.561  1.00  0.00     0.015 C 
ENDROOT
BRANCH   1  24
ATOM     24  O   UNL     1      -9.149   2.098   0.714  1.00  0.00    -0.462 OA
BRANCH  24  25
ATOM     25  C   UNL     1     -10.466   2.308   0.864  1.00  0.00     0.302 C 
ATOM     26  C   UNL     1     -11.449   1.604  -0.036  1.00  0.00     0.139 C 
ATOM     27  O   UNL     1     -10.864   3.062   1.721  1.00  0.00    -0.253 OA
ENDBRANCH  24  25
ENDBRANCH   1  24
BRANCH  15  28
ATOM     28  O   UNL     1      -0.743   2.639  -3.634  1.00  0.00    -0.460 OA
BRANCH  28  29
ATOM     29  C   UNL     1      -1.019   3.473  -4.649  1.00  0.00     0.302 C 
ATOM     30  O   UNL     1      -1.601   4.511  -4.438  1.00  0.00    -0.253 OA
ATOM     31  C   UNL     1      -0.605   3.114  -6.053  1.00  0.00     0.139 C 
ENDBRANCH  28  29
ENDBRANCH  15  28
TORSDOF 4
