REMARK SMILES Cc1ccc(SCc2cccc(C(=O)NNC(=O)Cc3nc4ccccc4n3C)c2)c(C)c1
REMARK SMILES IDX 8 1 9 2 10 3 11 4 12 5 30 6 7 7 6 8 5 9 1 10 2 11 33 12 3 13
REMARK SMILES IDX 31 14 4 15 32 16 13 17 14 18 15 19 16 21 17 22 18 24 19 25
REMARK SMILES IDX 20 26 28 27 21 28 27 29 29 30 22 31 26 32 23 33 25 34 24 35
REMARK H PARENT 15 20 16 23
REMARK Flexibility Score: inf
ROOT
ATOM      1  C   UNL     1      -0.017   1.380   0.010  1.00  0.00    -0.037 A 
ATOM      2  C   UNL     1       0.002  -0.004   0.002  1.00  0.00     0.004 A 
ATOM      3  C   UNL     1       1.206  -0.685  -0.014  1.00  0.00     0.001 A 
ATOM      4  C   UNL     1       2.397   0.011  -0.022  1.00  0.00     0.014 A 
ATOM      5  C   UNL     1       2.385   1.407  -0.014  1.00  0.00     0.041 A 
ATOM      6  C   UNL     1       1.167   2.088   0.002  1.00  0.00     0.018 A 
ENDROOT
BRANCH   1   7
ATOM      7  C   UNL     1      -1.333   2.114   0.020  1.00  0.00     0.110 C 
BRANCH   7   8
ATOM      8  S   UNL     1      -1.853   2.399   1.734  1.00  0.00    -0.121 SA
BRANCH   8   9
ATOM      9  C   UNL     1      -3.385   3.254   1.578  1.00  0.00     0.010 A 
ATOM     10  C   UNL     1      -7.104   5.328   1.199  1.00  0.00     0.044 C 
ATOM     11  C   UNL     1      -5.793   4.597   1.333  1.00  0.00    -0.051 A 
ATOM     12  C   UNL     1      -5.287   4.311   2.588  1.00  0.00     0.008 A 
ATOM     13  C   UNL     1      -5.098   4.213   0.200  1.00  0.00     0.004 A 
ATOM     14  C   UNL     1      -4.088   3.636   2.714  1.00  0.00    -0.037 A 
ATOM     15  C   UNL     1      -3.897   3.543   0.318  1.00  0.00     0.015 A 
ATOM     16  C   UNL     1      -3.541   3.320   4.082  1.00  0.00     0.045 C 
ENDBRANCH   8   9
ENDBRANCH   7   8
ENDBRANCH   1   7
BRANCH   5  17
ATOM     17  C   UNL     1       3.657   2.160  -0.022  1.00  0.00     0.269 C 
ATOM     18  O   UNL     1       3.643   3.376  -0.015  1.00  0.00    -0.267 OA
ATOM     19  N   UNL     1       4.831   1.499  -0.037  1.00  0.00    -0.263 N 
ATOM     20  H   UNL     1       4.843   0.469  -0.043  1.00  0.00     0.191 HD
BRANCH  19  21
ATOM     21  N   UNL     1       6.037   2.213  -0.044  1.00  0.00    -0.267 N 
ATOM     22  C   UNL     1       7.211   1.552  -0.060  1.00  0.00     0.245 C 
ATOM     23  H   UNL     1       6.025   3.243  -0.038  1.00  0.00     0.191 HD
ATOM     24  O   UNL     1       7.225   0.340  -0.067  1.00  0.00    -0.273 OA
BRANCH  22  25
ATOM     25  C   UNL     1       8.508   2.320  -0.068  1.00  0.00     0.177 C 
BRANCH  25  26
ATOM     26  C   UNL     1       9.664   1.354  -0.085  1.00  0.00     0.119 A 
ATOM     27  N   UNL     1      10.251   0.860  -1.208  1.00  0.00    -0.331 N 
ATOM     28  N   UNL     1      10.250   0.874   0.973  1.00  0.00    -0.233 NA
ATOM     29  C   UNL     1      11.265   0.015  -0.804  1.00  0.00     0.068 A 
ATOM     30  C   UNL     1       9.877   1.169  -2.591  1.00  0.00     0.151 C 
ATOM     31  C   UNL     1      11.248   0.033   0.600  1.00  0.00     0.089 A 
ATOM     32  C   UNL     1      12.197  -0.766  -1.474  1.00  0.00     0.028 A 
ATOM     33  C   UNL     1      12.174  -0.738   1.309  1.00  0.00     0.030 A 
ATOM     34  C   UNL     1      13.101  -1.518  -0.755  1.00  0.00     0.002 A 
ATOM     35  C   UNL     1      13.084  -1.500   0.633  1.00  0.00     0.002 A 
ENDBRANCH  25  26
ENDBRANCH  22  25
ENDBRANCH  19  21
ENDBRANCH   5  17
TORSDOF 7
