REMARK SMILES O=C(Cn1c(Cc2cccc3ccccc23)nc2ccccc21)N1CCN(c2nccs2)CC1
REMARK SMILES IDX 5 1 17 2 18 3 19 4 20 5 21 6 22 7 23 8 4 9 6 10 7 11 13 12
REMARK SMILES IDX 12 13 14 14 11 15 15 16 16 17 10 18 9 19 8 20 3 21 2 22 1 23
REMARK SMILES IDX 24 24 34 25 25 26 33 27 26 28 27 29 28 30 32 31 29 32 31 33
REMARK SMILES IDX 30 34
REMARK H PARENT
REMARK Flexibility Score: inf
ROOT
ATOM      1  C   UNL     1      -2.120   0.915   0.066  1.00  0.00     0.114 A 
ATOM      2  N   UNL     1      -1.234  -0.035   0.134  1.00  0.00    -0.233 NA
ATOM      3  C   UNL     1       0.013   0.499   0.092  1.00  0.00     0.089 A 
ATOM      4  C   UNL     1       1.298  -0.049   0.129  1.00  0.00     0.030 A 
ATOM      5  C   UNL     1       2.390   0.770   0.067  1.00  0.00     0.002 A 
ATOM      6  C   UNL     1       2.238   2.146  -0.034  1.00  0.00     0.002 A 
ATOM      7  C   UNL     1       0.980   2.708  -0.072  1.00  0.00     0.028 A 
ATOM      8  C   UNL     1      -0.141   1.892  -0.010  1.00  0.00     0.069 A 
ATOM      9  N   UNL     1      -1.502   2.124  -0.020  1.00  0.00    -0.318 N 
ENDROOT
BRANCH   1  10
ATOM     10  C   UNL     1      -3.612   0.708   0.085  1.00  0.00     0.111 C 
BRANCH  10  11
ATOM     11  C   UNL     1      -4.087   0.605   1.511  1.00  0.00    -0.033 A 
ATOM     12  C   UNL     1      -3.930  -3.029   3.569  1.00  0.00     0.001 A 
ATOM     13  C   UNL     1      -4.419  -1.931   4.207  1.00  0.00     0.009 A 
ATOM     14  C   UNL     1      -3.486  -2.953   2.250  1.00  0.00     0.001 A 
ATOM     15  C   UNL     1      -4.480  -0.702   3.530  1.00  0.00    -0.018 A 
ATOM     16  C   UNL     1      -3.529  -1.780   1.562  1.00  0.00     0.009 A 
ATOM     17  C   UNL     1      -4.028  -0.625   2.188  1.00  0.00    -0.015 A 
ATOM     18  C   UNL     1      -4.978   0.453   4.156  1.00  0.00     0.009 A 
ATOM     19  C   UNL     1      -5.021   1.627   3.469  1.00  0.00     0.001 A 
ATOM     20  C   UNL     1      -4.571   1.704   2.152  1.00  0.00     0.005 A 
ENDBRANCH  10  11
ENDBRANCH   1  10
BRANCH   9  21
ATOM     21  C   UNL     1      -2.159   3.430  -0.112  1.00  0.00     0.224 C 
BRANCH  21  22
ATOM     22  C   UNL     1      -2.483   3.729  -1.553  1.00  0.00     0.242 C 
ATOM     23  O   UNL     1      -2.194   2.929  -2.418  1.00  0.00    -0.273 OA
ATOM     24  N   UNL     1      -3.095   4.884  -1.881  1.00  0.00    -0.338 N 
ATOM     25  C   UNL     1      -3.420   5.195  -3.281  1.00  0.00     0.141 C 
ATOM     26  C   UNL     1      -3.459   5.865  -0.848  1.00  0.00     0.141 C 
ATOM     27  C   UNL     1      -2.880   6.591  -3.608  1.00  0.00     0.140 C 
ATOM     28  C   UNL     1      -2.912   7.237  -1.271  1.00  0.00     0.140 C 
ATOM     29  N   UNL     1      -3.391   7.554  -2.623  1.00  0.00    -0.345 N 
BRANCH  29  30
ATOM     30  C   UNL     1      -3.058   8.851  -2.978  1.00  0.00     0.185 A 
ATOM     31  S   UNL     1      -3.423  10.336  -2.154  1.00  0.00    -0.106 S 
ATOM     32  N   UNL     1      -2.376   9.276  -4.024  1.00  0.00    -0.229 NA
ATOM     33  C   UNL     1      -2.622  11.444  -3.304  1.00  0.00     0.088 A 
ATOM     34  C   UNL     1      -2.148  10.562  -4.216  1.00  0.00     0.125 A 
ENDBRANCH  29  30
ENDBRANCH  21  22
ENDBRANCH   9  21
TORSDOF 5
