REMARK SMILES NC(=[NH2+])c1ccc2[nH]cc([C@H](Cc3ccc(N)cc3)C(=O)Nc3ccc(-n4cnc5ccccc54)cc3)c2c1
REMARK SMILES IDX 11 1 20 2 22 3 21 5 23 6 26 7 36 8 25 9 37 10 24 11 27 12
REMARK SMILES IDX 32 13 31 14 33 15 30 16 34 17 35 18 29 19 28 20 12 21 13 22
REMARK SMILES IDX 19 23 14 24 18 25 15 26 16 27 17 28 10 31 38 32 9 33 7 34
REMARK SMILES IDX 39 35 8 36 6 37 4 38 5 40 2 41 1 42 3 43
REMARK H PARENT 22 4 17 29 17 30 8 39 1 44 1 45 3 46 3 47
REMARK Flexibility Score: inf
ROOT
ATOM      1  C   UNL     1      -1.139  -0.922  -1.594  1.00  0.00     0.115 C 
ENDROOT
BRANCH   1   2
ATOM      2  C   UNL     1       0.054  -0.086  -1.979  1.00  0.00     0.232 C 
ATOM      3  N   UNL     1       0.025   1.250  -1.808  1.00  0.00    -0.326 N 
ATOM      4  H   UNL     1      -0.838   1.709  -1.482  1.00  0.00     0.169 HD
ATOM      5  O   UNL     1       1.042  -0.616  -2.443  1.00  0.00    -0.274 OA
BRANCH   3   6
ATOM      6  C   UNL     1       1.167   2.016  -2.075  1.00  0.00     0.041 A 
ATOM      7  C   UNL     1       3.425   3.530  -2.602  1.00  0.00     0.047 A 
ATOM      8  C   UNL     1       2.576   3.887  -1.563  1.00  0.00     0.029 A 
ATOM      9  C   UNL     1       3.141   2.413  -3.377  1.00  0.00     0.029 A 
ATOM     10  C   UNL     1       1.448   3.136  -1.303  1.00  0.00     0.028 A 
ATOM     11  C   UNL     1       2.015   1.659  -3.115  1.00  0.00     0.028 A 
BRANCH   7  12
ATOM     12  N   UNL     1       4.568   4.296  -2.869  1.00  0.00    -0.299 N 
ATOM     13  C   UNL     1       5.386   8.300  -3.421  1.00  0.00     0.002 A 
ATOM     14  C   UNL     1       6.333   7.316  -3.473  1.00  0.00     0.030 A 
ATOM     15  C   UNL     1       4.057   7.990  -3.172  1.00  0.00     0.002 A 
ATOM     16  C   UNL     1       5.964   5.983  -3.273  1.00  0.00     0.089 A 
ATOM     17  C   UNL     1       3.670   6.682  -2.972  1.00  0.00     0.029 A 
ATOM     18  C   UNL     1       4.617   5.668  -3.026  1.00  0.00     0.073 A 
ATOM     19  N   UNL     1       6.652   4.813  -3.264  1.00  0.00    -0.236 NA
ATOM     20  C   UNL     1       5.837   3.826  -3.028  1.00  0.00     0.205 A 
ENDBRANCH   7  12
ENDBRANCH   3   6
ENDBRANCH   1   2
BRANCH   1  21
ATOM     21  C   UNL     1      -0.847  -2.395  -1.887  1.00  0.00     0.054 C 
BRANCH  21  22
ATOM     22  C   UNL     1      -2.081  -3.215  -1.618  1.00  0.00    -0.047 A 
ATOM     23  C   UNL     1      -2.998  -3.434  -2.629  1.00  0.00     0.006 A 
ATOM     24  C   UNL     1      -2.292  -3.752  -0.361  1.00  0.00     0.006 A 
ATOM     25  C   UNL     1      -4.131  -4.186  -2.386  1.00  0.00     0.026 A 
ATOM     26  C   UNL     1      -3.425  -4.500  -0.109  1.00  0.00     0.026 A 
ATOM     27  C   UNL     1      -4.349  -4.722  -1.123  1.00  0.00     0.031 A 
BRANCH  27  28
ATOM     28  N   UNL     1      -5.493  -5.483  -0.873  1.00  0.00    -0.399 N 
ATOM     29  H   UNL     1      -5.652  -5.880   0.064  1.00  0.00     0.156 HD
ATOM     30  H   UNL     1      -6.177  -5.648  -1.625  1.00  0.00     0.156 HD
ENDBRANCH  27  28
ENDBRANCH  21  22
ENDBRANCH   1  21
BRANCH   1  31
ATOM     31  C   UNL     1      -1.419  -0.749  -0.123  1.00  0.00    -0.010 A 
ATOM     32  C   UNL     1      -2.652  -0.229   0.475  1.00  0.00     0.004 A 
ATOM     33  C   UNL     1      -0.585  -1.036   0.888  1.00  0.00     0.088 A 
ATOM     34  C   UNL     1      -2.451  -0.257   1.868  1.00  0.00     0.046 A 
ATOM     35  C   UNL     1      -3.864   0.221  -0.045  1.00  0.00     0.027 A 
ATOM     36  N   UNL     1      -1.185  -0.749   2.084  1.00  0.00    -0.361 N 
ATOM     37  C   UNL     1      -3.464   0.180   2.719  1.00  0.00     0.027 A 
ATOM     38  C   UNL     1      -4.861   0.652   0.823  1.00  0.00     0.063 A 
ATOM     39  H   UNL     1      -0.752  -0.881   3.010  1.00  0.00     0.166 HD
ATOM     40  C   UNL     1      -4.647   0.626   2.206  1.00  0.00     0.019 A 
BRANCH  38  41
ATOM     41  C   UNL     1      -6.150   1.139   0.284  1.00  0.00     0.270 C 
ATOM     42  N   UNL     1      -7.139   1.566   1.144  1.00  0.00    -0.287 N 
ATOM     43  N   UNL     1      -6.292   1.139  -1.033  1.00  0.00    -0.287 N 
ATOM     44  H   UNL     1      -6.981   1.546   2.161  1.00  0.00     0.302 HD
ATOM     45  H   UNL     1      -8.037   1.905   0.768  1.00  0.00     0.302 HD
ATOM     46  H   UNL     1      -5.546   0.817  -1.667  1.00  0.00     0.302 HD
ATOM     47  H   UNL     1      -7.181   1.473  -1.430  1.00  0.00     0.302 HD
ENDBRANCH  38  41
ENDBRANCH   1  31
TORSDOF 8
