REMARK SMILES CCc1cc2c3c([nH]c2cc1S(=O)(=O)N1CCN(Cc2ccccc2)CC1)CC(C)(C)CC3=O
REMARK SMILES IDX 15 1 16 2 17 3 18 4 26 5 27 6 12 7 13 8 14 9 11 10 3 11 4 12
REMARK SMILES IDX 10 13 5 14 9 15 6 16 8 17 7 18 33 19 28 21 34 22 32 23 29 24
REMARK SMILES IDX 30 25 31 26 2 27 1 28 19 29 20 30 25 31 21 32 24 33 22 34
REMARK SMILES IDX 23 35
REMARK H PARENT 8 20
REMARK Flexibility Score: inf
ROOT
ATOM      1  N   UNL     1       5.502   0.545   0.058  1.00  0.00    -0.195 NA
ATOM      2  C   UNL     1       5.905   0.168   1.421  1.00  0.00     0.118 C 
ATOM      3  C   UNL     1       4.959  -0.938   1.915  1.00  0.00     0.101 C 
ATOM      4  N   UNL     1       4.952  -2.039   0.944  1.00  0.00    -0.296 NA
ATOM      5  C   UNL     1       4.422  -1.601  -0.354  1.00  0.00     0.101 C 
ATOM      6  C   UNL     1       5.340  -0.523  -0.940  1.00  0.00     0.118 C 
ENDROOT
BRANCH   1   7
ATOM      7  S   UNL     1       5.245   2.130  -0.344  1.00  0.00     0.243 S 
ATOM      8  O   UNL     1       5.291   2.202  -1.763  1.00  0.00    -0.207 OA
ATOM      9  O   UNL     1       6.099   2.904   0.486  1.00  0.00    -0.207 OA
BRANCH   7  10
ATOM     10  C   UNL     1       3.593   2.525   0.126  1.00  0.00     0.087 A 
ATOM     11  C   UNL     1       3.188   3.851   0.166  1.00  0.00    -0.027 A 
ATOM     12  C   UNL     1       1.899   4.173   0.532  1.00  0.00     0.016 A 
ATOM     13  C   UNL     1       2.715   1.514   0.451  1.00  0.00     0.048 A 
ATOM     14  C   UNL     1       1.000   3.163   0.863  1.00  0.00     0.011 A 
ATOM     15  C   UNL     1       1.410   1.818   0.823  1.00  0.00     0.048 A 
ATOM     16  C   UNL     1      -0.403   3.132   1.284  1.00  0.00     0.046 A 
ATOM     17  N   UNL     1       0.332   1.035   1.194  1.00  0.00    -0.358 N 
ATOM     18  C   UNL     1      -0.735   1.798   1.466  1.00  0.00     0.027 A 
ATOM     19  C   UNL     1      -1.326   4.185   1.491  1.00  0.00     0.165 C 
ATOM     20  H   UNL     1       0.347   0.007   1.254  1.00  0.00     0.166 HD
ATOM     21  C   UNL     1      -2.111   1.374   1.925  1.00  0.00     0.061 C 
ATOM     22  O   UNL     1      -0.997   5.346   1.355  1.00  0.00    -0.294 OA
ATOM     23  C   UNL     1      -2.738   3.812   1.889  1.00  0.00     0.088 C 
ATOM     24  C   UNL     1      -2.724   2.531   2.724  1.00  0.00    -0.023 C 
ATOM     25  C   UNL     1      -1.899   2.763   3.991  1.00  0.00     0.012 C 
ATOM     26  C   UNL     1      -4.159   2.169   3.115  1.00  0.00     0.012 C 
BRANCH  11  27
ATOM     27  C   UNL     1       4.162   4.944  -0.191  1.00  0.00     0.033 C 
ATOM     28  C   UNL     1       4.189   5.126  -1.710  1.00  0.00     0.009 C 
ENDBRANCH  11  27
ENDBRANCH   7  10
ENDBRANCH   1   7
BRANCH   4  29
ATOM     29  C   UNL     1       4.199  -3.191   1.458  1.00  0.00     0.120 C 
BRANCH  29  30
ATOM     30  C   UNL     1       4.602  -3.458   2.886  1.00  0.00    -0.034 A 
ATOM     31  C   UNL     1       3.923  -2.844   3.922  1.00  0.00     0.005 A 
ATOM     32  C   UNL     1       5.647  -4.320   3.159  1.00  0.00     0.005 A 
ATOM     33  C   UNL     1       4.292  -3.089   5.231  1.00  0.00     0.000 A 
ATOM     34  C   UNL     1       6.020  -4.561   4.468  1.00  0.00     0.000 A 
ATOM     35  C   UNL     1       5.341  -3.947   5.504  1.00  0.00     0.000 A 
ENDBRANCH  29  30
ENDBRANCH   4  29
TORSDOF 5
