REMARK SMILES CCOc1cc(/C=C2\N=C(SC[C@@H]3CCCO3)N(c3ccc(OC(F)F)cc3)C2=O)ccc1O
REMARK SMILES IDX 7 1 8 2 29 3 30 4 18 5 10 6 9 7 6 8 4 9 33 10 5 11 32 12
REMARK SMILES IDX 31 13 3 14 2 15 1 16 34 17 11 19 12 20 13 21 17 22 14 23
REMARK SMILES IDX 16 24 15 25 19 26 28 27 20 28 27 29 21 30 22 31 23 32 24 33
REMARK SMILES IDX 25 34 26 35
REMARK H PARENT 34 18
REMARK Flexibility Score: inf
ROOT
ATOM      1  C   UNL     1      -3.836   3.800  -5.154  1.00  0.00     0.042 C 
ATOM      2  C   UNL     1      -2.799   2.900  -5.074  1.00  0.00     0.132 C 
ATOM      3  C   UNL     1      -2.103   2.244  -6.197  1.00  0.00     0.283 C 
ATOM      4  O   UNL     1      -2.326   2.385  -7.386  1.00  0.00    -0.266 OA
ATOM      5  N   UNL     1      -1.164   1.457  -5.629  1.00  0.00    -0.254 N 
ATOM      6  C   UNL     1      -1.255   1.589  -4.264  1.00  0.00     0.176 C 
ATOM      7  N   UNL     1      -2.202   2.430  -3.938  1.00  0.00    -0.218 NA
ENDROOT
BRANCH   1   8
ATOM      8  C   UNL     1      -4.493   4.271  -3.932  1.00  0.00    -0.019 A 
ATOM      9  C   UNL     1      -6.248   5.522  -2.859  1.00  0.00     0.161 A 
ATOM     10  C   UNL     1      -5.735   5.159  -1.614  1.00  0.00     0.157 A 
ATOM     11  C   UNL     1      -5.633   5.082  -4.015  1.00  0.00     0.058 A 
ATOM     12  C   UNL     1      -4.606   4.355  -1.530  1.00  0.00     0.051 A 
ATOM     13  C   UNL     1      -3.988   3.907  -2.677  1.00  0.00     0.012 A 
BRANCH   9  14
ATOM     14  O   UNL     1      -7.354   6.309  -2.935  1.00  0.00    -0.490 OA
BRANCH  14  15
ATOM     15  C   UNL     1      -7.825   6.641  -4.243  1.00  0.00     0.226 C 
ATOM     16  C   UNL     1      -9.068   7.526  -4.128  1.00  0.00     0.049 C 
ENDBRANCH  14  15
ENDBRANCH   9  14
BRANCH  10  17
ATOM     17  O   UNL     1      -6.343   5.593  -0.479  1.00  0.00    -0.504 OA
ATOM     18  H   UNL     1      -7.280   5.282  -0.556  1.00  0.00     0.293 HD
ENDBRANCH  10  17
ENDBRANCH   1   8
BRANCH   6  19
ATOM     19  S   UNL     1      -0.228   0.745  -3.108  1.00  0.00    -0.085 SA
BRANCH  19  20
ATOM     20  C   UNL     1      -0.898   1.397  -1.558  1.00  0.00     0.110 C 
BRANCH  20  21
ATOM     21  C   UNL     1      -0.139   0.787  -0.378  1.00  0.00     0.128 C 
ATOM     22  O   UNL     1       1.219   1.244  -0.385  1.00  0.00    -0.377 OA
ATOM     23  C   UNL     1      -0.778   1.243   0.951  1.00  0.00     0.035 C 
ATOM     24  C   UNL     1       1.491   1.990   0.812  1.00  0.00     0.160 C 
ATOM     25  C   UNL     1       0.465   1.474   1.852  1.00  0.00     0.031 C 
ENDBRANCH  20  21
ENDBRANCH  19  20
ENDBRANCH   6  19
BRANCH   5  26
ATOM     26  C   UNL     1      -0.252   0.640  -6.315  1.00  0.00     0.052 A 
ATOM     27  C   UNL     1      -0.713  -0.324  -7.201  1.00  0.00     0.030 A 
ATOM     28  C   UNL     1       1.112   0.799  -6.112  1.00  0.00     0.030 A 
ATOM     29  C   UNL     1       0.184  -1.127  -7.876  1.00  0.00     0.049 A 
ATOM     30  C   UNL     1       2.009  -0.008  -6.784  1.00  0.00     0.049 A 
ATOM     31  C   UNL     1       1.547  -0.971  -7.670  1.00  0.00     0.126 A 
BRANCH  31  32
ATOM     32  O   UNL     1       2.431  -1.762  -8.334  1.00  0.00    -0.435 OA
BRANCH  32  33
ATOM     33  C   UNL     1       3.819  -1.546  -8.073  1.00  0.00     0.542 C 
ATOM     34  F   UNL     1       4.159  -0.233  -8.415  1.00  0.00    -0.167 F 
ATOM     35  F   UNL     1       4.076  -1.756  -6.714  1.00  0.00    -0.167 F 
ENDBRANCH  32  33
ENDBRANCH  31  32
ENDBRANCH   5  26
TORSDOF 10
