REMARK SMILES O=C(NNC(=O)c1c[nH]c(=S)n1-c1ccc(F)cc1)c1nc(-c2ccccc2)n(-c2ccccc2)n1
REMARK SMILES IDX 2 1 1 2 3 3 20 5 22 6 29 7 21 8 36 9 23 10 26 11 27 12 25 13
REMARK SMILES IDX 28 14 24 15 30 16 35 17 31 18 34 19 32 20 33 21 4 22 5 23
REMARK SMILES IDX 6 25 7 26 12 27 8 28 10 29 9 30 11 31 13 33 19 34 14 35
REMARK SMILES IDX 18 36 15 37 16 38 17 39
REMARK H PARENT 3 4 4 24 9 32
REMARK Flexibility Score: inf
ROOT
ATOM      1  C   UNL     1       0.426  -4.781  -0.634  1.00  0.00     0.309 C 
ATOM      2  O   UNL     1      -0.687  -4.430  -0.974  1.00  0.00    -0.264 OA
ATOM      3  N   UNL     1       1.275  -3.890  -0.084  1.00  0.00    -0.260 N 
ATOM      4  H   UNL     1       2.218  -4.188   0.204  1.00  0.00     0.191 HD
ENDROOT
BRANCH   1   5
ATOM      5  C   UNL     1       0.849  -6.185  -0.824  1.00  0.00     0.242 A 
ATOM      6  C   UNL     1       0.834  -8.262  -1.351  1.00  0.00     0.164 A 
ATOM      7  N   UNL     1       2.040  -7.939  -0.806  1.00  0.00    -0.212 N 
ATOM      8  N   UNL     1       0.102  -7.166  -1.357  1.00  0.00    -0.202 NA
ATOM      9  N   UNL     1       2.023  -6.686  -0.504  1.00  0.00    -0.140 NA
BRANCH   6  10
ATOM     10  C   UNL     1       0.422  -9.595  -1.844  1.00  0.00     0.019 A 
ATOM     11  C   UNL     1      -0.348 -12.089  -2.768  1.00  0.00     0.000 A 
ATOM     12  C   UNL     1       0.977 -11.701  -2.856  1.00  0.00     0.001 A 
ATOM     13  C   UNL     1      -1.290 -11.237  -2.221  1.00  0.00     0.001 A 
ATOM     14  C   UNL     1       1.366 -10.458  -2.402  1.00  0.00     0.012 A 
ATOM     15  C   UNL     1      -0.912  -9.992  -1.759  1.00  0.00     0.012 A 
ENDBRANCH   6  10
BRANCH   7  16
ATOM     16  C   UNL     1       3.115  -8.815  -0.613  1.00  0.00     0.067 A 
ATOM     17  C   UNL     1       4.404  -8.419  -0.944  1.00  0.00     0.028 A 
ATOM     18  C   UNL     1       2.895 -10.081  -0.085  1.00  0.00     0.028 A 
ATOM     19  C   UNL     1       5.462  -9.285  -0.753  1.00  0.00     0.002 A 
ATOM     20  C   UNL     1       3.957 -10.945   0.098  1.00  0.00     0.002 A 
ATOM     21  C   UNL     1       5.239 -10.547  -0.232  1.00  0.00     0.000 A 
ENDBRANCH   7  16
ENDBRANCH   1   5
BRANCH   3  22
ATOM     22  N   UNL     1       0.875  -2.560   0.096  1.00  0.00    -0.262 N 
ATOM     23  C   UNL     1       1.724  -1.669   0.646  1.00  0.00     0.288 C 
ATOM     24  H   UNL     1      -0.069  -2.262  -0.192  1.00  0.00     0.191 HD
ATOM     25  O   UNL     1       2.868  -1.996   0.899  1.00  0.00    -0.266 OA
BRANCH  23  26
ATOM     26  C   UNL     1       1.268  -0.307   0.939  1.00  0.00     0.131 A 
ATOM     27  N   UNL     1      -0.039   0.177   0.812  1.00  0.00    -0.281 N 
ATOM     28  C   UNL     1       2.032   0.717   1.381  1.00  0.00     0.117 A 
ATOM     29  C   UNL     1      -0.031   1.474   1.179  1.00  0.00     0.182 A 
ATOM     30  N   UNL     1       1.224   1.813   1.528  1.00  0.00    -0.336 N 
ATOM     31  S   UNL     1      -1.389   2.516   1.194  1.00  0.00    -0.040 S 
ATOM     32  H   UNL     1       1.527   2.743   1.851  1.00  0.00     0.168 HD
BRANCH  27  33
ATOM     33  C   UNL     1      -1.153  -0.554   0.382  1.00  0.00     0.049 A 
ATOM     34  C   UNL     1      -1.739  -0.272  -0.845  1.00  0.00     0.030 A 
ATOM     35  C   UNL     1      -1.671  -1.567   1.180  1.00  0.00     0.030 A 
ATOM     36  C   UNL     1      -2.837  -0.995  -1.268  1.00  0.00     0.041 A 
ATOM     37  C   UNL     1      -2.772  -2.284   0.755  1.00  0.00     0.041 A 
ATOM     38  C   UNL     1      -3.355  -2.001  -0.469  1.00  0.00     0.123 A 
ATOM     39  F   UNL     1      -4.429  -2.707  -0.884  1.00  0.00    -0.207 F 
ENDBRANCH  27  33
ENDBRANCH  23  26
ENDBRANCH   3  22
TORSDOF 6
