REMARK SMILES O=C(N[C@@H](c1ccccc1)c1ccc2[nH]cnc2c1)c1ccc2c(=O)n3c(nc2c1)CCCCCC3
REMARK SMILES IDX 20 1 21 2 22 3 23 4 29 5 30 6 28 7 27 8 26 9 24 10 25 11
REMARK SMILES IDX 2 12 3 13 1 15 4 16 5 17 8 18 9 19 7 20 10 21 6 22 11 23
REMARK SMILES IDX 19 24 12 25 18 26 13 27 14 28 17 29 15 30 16 31 31 33 32 34
REMARK SMILES IDX 33 35 36 37 35 38 34 39
REMARK H PARENT 3 14 15 32
REMARK Flexibility Score: 90.00
ROOT
ATOM      1  C   UNL     1      -1.073   9.721   2.404  1.00  0.00     0.042 A 
ATOM      2  C   UNL     1       0.302   9.630   2.657  1.00  0.00     0.015 A 
ATOM      3  C   UNL     1       0.918  10.540   3.471  1.00  0.00     0.017 A 
ATOM      4  C   UNL     1       0.174  11.552   4.071  1.00  0.00     0.066 A 
ATOM      5  C   UNL     1      -1.216  11.642   3.843  1.00  0.00     0.079 A 
ATOM      6  C   UNL     1      -1.833  10.726   2.991  1.00  0.00     0.043 A 
ATOM      7  N   UNL     1      -1.914  12.600   4.488  1.00  0.00    -0.234 NA
ATOM      8  C   UNL     1      -1.367  13.416   5.359  1.00  0.00     0.112 A 
ATOM      9  N   UNL     1      -0.035  13.440   5.584  1.00  0.00    -0.296 N 
ATOM     10  C   UNL     1       0.786  12.557   4.954  1.00  0.00     0.261 A 
ATOM     11  O   UNL     1       1.990  12.597   5.125  1.00  0.00    -0.269 OA
ENDROOT
BRANCH   1  12
ATOM     12  C   UNL     1      -1.725   8.739   1.508  1.00  0.00     0.252 C 
ATOM     13  N   UNL     1      -0.996   7.760   0.937  1.00  0.00    -0.341 N 
ATOM     14  H   UNL     1       0.015   7.694   1.124  1.00  0.00     0.164 HD
ATOM     15  O   UNL     1      -2.917   8.816   1.286  1.00  0.00    -0.269 OA
BRANCH  13  16
ATOM     16  C   UNL     1      -1.640   6.788   0.050  1.00  0.00     0.143 C 
BRANCH  16  17
ATOM     17  C   UNL     1      -1.710   7.351  -1.346  1.00  0.00    -0.021 A 
ATOM     18  C   UNL     1      -1.840   8.385  -3.907  1.00  0.00     0.000 A 
ATOM     19  C   UNL     1      -0.709   8.584  -3.137  1.00  0.00     0.000 A 
ATOM     20  C   UNL     1      -2.906   7.669  -3.396  1.00  0.00     0.000 A 
ATOM     21  C   UNL     1      -0.646   8.071  -1.855  1.00  0.00     0.006 A 
ATOM     22  C   UNL     1      -2.842   7.153  -2.115  1.00  0.00     0.006 A 
ENDBRANCH  16  17
BRANCH  16  23
ATOM     23  C   UNL     1      -0.840   5.511   0.037  1.00  0.00    -0.019 A 
ATOM     24  C   UNL     1      -1.486   4.308   0.037  1.00  0.00     0.036 A 
ATOM     25  C   UNL     1       0.547   5.570   0.025  1.00  0.00     0.008 A 
ATOM     26  C   UNL     1      -0.748   3.121   0.025  1.00  0.00     0.089 A 
ATOM     27  C   UNL     1       1.295   4.412   0.013  1.00  0.00     0.029 A 
ATOM     28  C   UNL     1       0.655   3.180   0.012  1.00  0.00     0.065 A 
ATOM     29  N   UNL     1      -1.089   1.807   0.017  1.00  0.00    -0.237 NA
ATOM     30  N   UNL     1       1.092   1.870   0.002  1.00  0.00    -0.345 N 
ATOM     31  C   UNL     1      -0.013   1.076   0.008  1.00  0.00     0.197 A 
ATOM     32  H   UNL     1       2.072   1.553  -0.009  1.00  0.00     0.168 HD
ENDBRANCH  16  23
ENDBRANCH  13  16
ENDBRANCH   1  12
BRANCH   8  33
ATOM     33  C   UNL     1      -2.317  14.280   6.143  1.00  0.00     0.075 C 
BRANCH  33  34
ATOM     34  C   UNL     1      -1.796  15.715   6.301  1.00  0.00     0.008 C 
BRANCH  34  35
ATOM     35  C   UNL     1      -1.368  15.949   7.750  1.00  0.00     0.001 CG0
ATOM     36  G   UNL     1      -0.943  14.677   8.467  1.00  0.00     0.000 G0
ENDBRANCH  34  35
ENDBRANCH  33  34
ENDBRANCH   8  33
BRANCH   9  37
ATOM     37  C   UNL     1       0.607  14.408   6.494  1.00  0.00     0.127 C 
BRANCH  37  38
ATOM     38  C   UNL     1       0.308  13.989   7.939  1.00  0.00     0.022 C 
BRANCH  38  39
ATOM     39  C   UNL     1      -0.943  14.677   8.467  1.00  0.00     0.002 CG0
ATOM     40  G   UNL     1      -1.368  15.949   7.750  1.00  0.00     0.000 G0
ENDBRANCH  38  39
ENDBRANCH  37  38
ENDBRANCH   9  37
TORSDOF 4
