REMARK SMILES Oc1cccc(N2CCc3cc(O)ccc3[C@@H]2c2ccc(N3CC[NH+](C4CCCCC4)CC3)cc2)c1
REMARK SMILES IDX 7 1 8 2 9 3 10 4 11 5 12 6 14 7 15 8 16 9 17 10 6 11 4 12
REMARK SMILES IDX 3 13 5 14 2 15 36 16 1 17 18 19 35 20 19 21 34 22 20 23
REMARK SMILES IDX 21 24 22 25 33 26 23 27 32 28 24 29 25 30 26 32 31 33 27 34
REMARK SMILES IDX 30 35 28 36 29 37 13 38
REMARK H PARENT 1 18 25 31 13 39
REMARK Flexibility Score: inf
ROOT
ATOM      1  N   UNL     1       5.791   3.188   1.220  1.00  0.00    -0.360 N 
ATOM      2  C   UNL     1       4.936   3.676   2.314  1.00  0.00     0.122 C 
ATOM      3  C   UNL     1       3.787   2.686   2.510  1.00  0.00     0.057 C 
ATOM      4  C   UNL     1       3.124   2.399   1.187  1.00  0.00    -0.037 A 
ATOM      5  C   UNL     1       1.863   1.823   1.192  1.00  0.00     0.050 A 
ATOM      6  C   UNL     1       1.223   1.532  -0.001  1.00  0.00     0.115 A 
ATOM      7  C   UNL     1       1.844   1.831  -1.206  1.00  0.00     0.046 A 
ATOM      8  C   UNL     1       3.095   2.411  -1.206  1.00  0.00     0.010 A 
ATOM      9  C   UNL     1       3.739   2.697  -0.011  1.00  0.00    -0.018 A 
ATOM     10  C   UNL     1       5.102   3.335  -0.066  1.00  0.00     0.143 C 
ENDROOT
BRANCH   1  11
ATOM     11  C   UNL     1       7.019   3.854   1.209  1.00  0.00     0.041 A 
ATOM     12  C   UNL     1       8.645   5.193   0.060  1.00  0.00     0.006 A 
ATOM     13  C   UNL     1       9.453   5.176   1.181  1.00  0.00     0.046 A 
ATOM     14  C   UNL     1       7.431   4.534   0.070  1.00  0.00     0.026 A 
ATOM     15  C   UNL     1       9.046   4.498   2.322  1.00  0.00     0.117 A 
ATOM     16  C   UNL     1       7.826   3.841   2.338  1.00  0.00     0.072 A 
BRANCH  15  17
ATOM     17  O   UNL     1       9.842   4.482   3.423  1.00  0.00    -0.508 OA
ATOM     18  H   UNL     1       9.984   3.522   3.621  1.00  0.00     0.293 HD
ENDBRANCH  15  17
ENDBRANCH   1  11
BRANCH  10  19
ATOM     19  C   UNL     1       5.918   2.671  -1.146  1.00  0.00    -0.021 A 
ATOM     20  C   UNL     1       6.052   3.278  -2.381  1.00  0.00     0.008 A 
ATOM     21  C   UNL     1       6.535   1.459  -0.897  1.00  0.00     0.008 A 
ATOM     22  C   UNL     1       6.799   2.673  -3.373  1.00  0.00     0.026 A 
ATOM     23  C   UNL     1       7.279   0.845  -1.886  1.00  0.00     0.026 A 
ATOM     24  C   UNL     1       7.416   1.453  -3.128  1.00  0.00     0.037 A 
BRANCH  24  25
ATOM     25  N   UNL     1       8.172   0.838  -4.128  1.00  0.00    -0.360 N 
ATOM     26  C   UNL     1       8.731  -0.437  -3.657  1.00  0.00     0.178 C 
ATOM     27  C   UNL     1       7.374   0.641  -5.347  1.00  0.00     0.178 C 
ATOM     28  C   UNL     1       9.615  -1.039  -4.752  1.00  0.00     0.284 C 
ATOM     29  C   UNL     1       8.258   0.040  -6.441  1.00  0.00     0.284 C 
ATOM     30  N   UNL     1       8.796  -1.251  -5.964  1.00  0.00    -0.330 N 
ATOM     31  H   UNL     1       8.010  -1.876  -5.732  1.00  0.00     0.348 HD
BRANCH  30  32
ATOM     32  C   UNL     1       9.613  -1.882  -7.022  1.00  0.00     0.184 C 
ATOM     33  C   UNL     1       8.718  -2.182  -8.227  1.00  0.00     0.065 C 
ATOM     34  C   UNL     1      10.747  -0.949  -7.450  1.00  0.00     0.065 C 
ATOM     35  C   UNL     1       9.546  -2.855  -9.322  1.00  0.00     0.006 C 
ATOM     36  C   UNL     1      11.576  -1.622  -8.546  1.00  0.00     0.006 C 
ATOM     37  C   UNL     1      10.681  -1.922  -9.750  1.00  0.00     0.000 C 
ENDBRANCH  30  32
ENDBRANCH  24  25
ENDBRANCH  10  19
BRANCH   6  38
ATOM     38  O   UNL     1      -0.011   0.963   0.007  1.00  0.00    -0.508 OA
ATOM     39  H   UNL     1      -0.571   1.579   0.543  1.00  0.00     0.293 HD
ENDBRANCH   6  38
TORSDOF 6
