REMARK SMILES CCOc1cc(C[NH2+]CCNc2ccc([N+](=O)[O-])cc2)cc(Br)c1OCc1ccc(C)cc1
REMARK SMILES IDX 8 1 7 4 6 5 4 6 24 7 5 8 22 9 21 10 23 11 3 12 2 13 1 14
REMARK SMILES IDX 25 15 26 16 27 17 33 18 28 19 32 20 29 21 30 22 31 23 9 24
REMARK SMILES IDX 10 25 11 26 12 28 20 29 13 30 19 31 14 32 15 33 16 34 18 35
REMARK SMILES IDX 17 36
REMARK H PARENT 8 2 8 3 11 27
REMARK Flexibility Score: inf
ROOT
ATOM      1  N   UNL     1       3.547  -5.011  -0.058  1.00  0.00    -0.341 N 
ATOM      2  H   UNL     1       4.091  -4.748   0.776  1.00  0.00     0.346 HD
ATOM      3  H   UNL     1       4.075  -4.739  -0.899  1.00  0.00     0.346 HD
ENDROOT
BRANCH   1   4
ATOM      4  C   UNL     1       3.341  -6.466  -0.063  1.00  0.00     0.297 C 
BRANCH   4   5
ATOM      5  C   UNL     1       4.677  -7.162  -0.080  1.00  0.00     0.011 A 
ATOM      6  C   UNL     1       6.528  -8.129   1.098  1.00  0.00     0.162 A 
ATOM      7  C   UNL     1       7.132  -8.444  -0.115  1.00  0.00     0.175 A 
ATOM      8  C   UNL     1       5.300  -7.487   1.111  1.00  0.00     0.060 A 
ATOM      9  C   UNL     1       6.502  -8.116  -1.306  1.00  0.00     0.064 A 
ATOM     10  C   UNL     1       5.274  -7.481  -1.285  1.00  0.00     0.029 A 
ATOM     11  Br  UNL     1       7.319  -8.542  -2.957  1.00  0.00    -0.047 Br
BRANCH   6  12
ATOM     12  O   UNL     1       7.142  -8.449   2.268  1.00  0.00    -0.490 OA
BRANCH  12  13
ATOM     13  C   UNL     1       6.463  -8.095   3.475  1.00  0.00     0.226 C 
ATOM     14  C   UNL     1       7.301  -8.532   4.678  1.00  0.00     0.049 C 
ENDBRANCH  12  13
ENDBRANCH   6  12
BRANCH   7  15
ATOM     15  O   UNL     1       8.338  -9.074  -0.133  1.00  0.00    -0.484 OA
BRANCH  15  16
ATOM     16  C   UNL     1       8.323 -10.503  -0.141  1.00  0.00     0.265 C 
BRANCH  16  17
ATOM     17  C   UNL     1       9.739 -11.019  -0.161  1.00  0.00    -0.011 A 
ATOM     18  C   UNL     1      10.402 -11.264   1.027  1.00  0.00     0.007 A 
ATOM     19  C   UNL     1      10.372 -11.255  -1.367  1.00  0.00     0.007 A 
ATOM     20  C   UNL     1      11.700 -11.737   1.009  1.00  0.00     0.004 A 
ATOM     21  C   UNL     1      11.672 -11.724  -1.385  1.00  0.00     0.004 A 
ATOM     22  C   UNL     1      12.335 -11.968  -0.197  1.00  0.00    -0.051 A 
ATOM     23  C   UNL     1      13.751 -12.485  -0.216  1.00  0.00     0.044 C 
ENDBRANCH  16  17
ENDBRANCH  15  16
ENDBRANCH   7  15
ENDBRANCH   4   5
ENDBRANCH   1   4
BRANCH   1  24
ATOM     24  C   UNL     1       2.263  -4.298  -0.042  1.00  0.00     0.282 C 
BRANCH  24  25
ATOM     25  C   UNL     1       2.518  -2.789  -0.037  1.00  0.00     0.174 C 
BRANCH  25  26
ATOM     26  N   UNL     1       1.238  -2.077  -0.021  1.00  0.00    -0.379 N 
ATOM     27  H   UNL     1       0.354  -2.607  -0.015  1.00  0.00     0.160 HD
BRANCH  26  28
ATOM     28  C   UNL     1       1.215  -0.681  -0.013  1.00  0.00     0.035 A 
ATOM     29  C   UNL     1       2.406   0.035  -0.021  1.00  0.00     0.033 A 
ATOM     30  C   UNL     1       0.002  -0.004   0.002  1.00  0.00     0.033 A 
ATOM     31  C   UNL     1       2.380   1.416  -0.013  1.00  0.00     0.088 A 
ATOM     32  C   UNL     1      -0.017   1.377   0.010  1.00  0.00     0.088 A 
ATOM     33  C   UNL     1       1.171   2.086   0.002  1.00  0.00     0.269 A 
BRANCH  33  34
ATOM     34  N   UNL     1       1.147   3.566   0.010  1.00  0.00     0.062 N 
ATOM     35  O   UNL     1       0.082   4.158   0.023  1.00  0.00    -0.258 OA
ATOM     36  O   UNL     1       2.191   4.192   0.003  1.00  0.00    -0.258 OA
ENDBRANCH  33  34
ENDBRANCH  26  28
ENDBRANCH  25  26
ENDBRANCH  24  25
ENDBRANCH   1  24
TORSDOF 12
