REMARK SMILES CC(C)(C)NC(=O)[C@H](c1c[nH]c2ccccc12)N(C(=O)Cn1nnc(-c2ccc(Cl)cc2)n1)c1ccccc1F
REMARK SMILES IDX 19 1 20 2 18 3 8 4 6 5 5 6 7 8 2 9 1 10 3 11 4 12 9 13 17 14
REMARK SMILES IDX 10 15 12 16 16 17 11 18 13 19 15 20 14 22 34 23 39 24 35 25
REMARK SMILES IDX 38 26 40 27 36 28 37 29 21 30 22 31 23 32 33 33 24 34 25 35
REMARK SMILES IDX 26 36 32 37 27 38 31 39 28 40 29 41 30 42
REMARK H PARENT 5 7 11 21
REMARK Flexibility Score: inf
ROOT
ATOM      1  C   UNL     1       3.792   3.217   0.269  1.00  0.00     0.251 C 
ATOM      2  O   UNL     1       3.379   2.685   1.277  1.00  0.00    -0.272 OA
ENDROOT
BRANCH   1   3
ATOM      3  N   UNL     1       3.009   4.083  -0.406  1.00  0.00    -0.291 N 
BRANCH   3   4
ATOM      4  C   UNL     1       1.625   4.305   0.022  1.00  0.00     0.212 C 
BRANCH   4   5
ATOM      5  C   UNL     1       1.610   4.740   1.465  1.00  0.00     0.248 C 
ATOM      6  N   UNL     1       0.445   5.073   2.056  1.00  0.00    -0.349 N 
ATOM      7  H   UNL     1      -0.434   5.030   1.522  1.00  0.00     0.164 HD
ATOM      8  O   UNL     1       2.645   4.790   2.095  1.00  0.00    -0.272 OA
BRANCH   6   9
ATOM      9  C   UNL     1       0.430   5.495   3.459  1.00  0.00     0.032 C 
ATOM     10  C   UNL     1       1.299   6.743   3.625  1.00  0.00     0.034 C 
ATOM     11  C   UNL     1      -1.006   5.813   3.880  1.00  0.00     0.034 C 
ATOM     12  C   UNL     1       0.981   4.369   4.336  1.00  0.00     0.034 C 
ENDBRANCH   6   9
ENDBRANCH   4   5
BRANCH   4  13
ATOM     13  C   UNL     1       0.842   3.027  -0.126  1.00  0.00     0.010 A 
ATOM     14  C   UNL     1      -0.616   2.903  -0.211  1.00  0.00     0.005 A 
ATOM     15  C   UNL     1       1.346   1.785  -0.205  1.00  0.00     0.090 A 
ATOM     16  C   UNL     1      -0.881   1.528  -0.346  1.00  0.00     0.046 A 
ATOM     17  C   UNL     1      -1.670   3.817  -0.188  1.00  0.00     0.011 A 
ATOM     18  N   UNL     1       0.332   0.876  -0.333  1.00  0.00    -0.361 N 
ATOM     19  C   UNL     1      -2.200   1.095  -0.445  1.00  0.00     0.026 A 
ATOM     20  C   UNL     1      -2.958   3.370  -0.292  1.00  0.00     0.001 A 
ATOM     21  H   UNL     1       0.457  -0.143  -0.409  1.00  0.00     0.166 HD
ATOM     22  C   UNL     1      -3.225   2.015  -0.420  1.00  0.00     0.002 A 
ENDBRANCH   4  13
ENDBRANCH   3   4
BRANCH   3  23
ATOM     23  C   UNL     1       3.517   4.769  -1.516  1.00  0.00     0.081 A 
ATOM     24  C   UNL     1       3.340   4.253  -2.795  1.00  0.00     0.146 A 
ATOM     25  C   UNL     1       4.204   5.962  -1.341  1.00  0.00     0.029 A 
ATOM     26  C   UNL     1       3.841   4.935  -3.889  1.00  0.00     0.041 A 
ATOM     27  F   UNL     1       2.677   3.088  -2.969  1.00  0.00    -0.205 F 
ATOM     28  C   UNL     1       4.705   6.636  -2.438  1.00  0.00     0.002 A 
ATOM     29  C   UNL     1       4.524   6.124  -3.710  1.00  0.00     0.003 A 
ENDBRANCH   3  23
ENDBRANCH   1   3
BRANCH   1  30
ATOM     30  C   UNL     1       5.180   2.912  -0.231  1.00  0.00     0.270 C 
BRANCH  30  31
ATOM     31  N   UNL     1       5.822   1.951   0.670  1.00  0.00    -0.154 N 
ATOM     32  N   UNL     1       5.768   0.670   0.553  1.00  0.00    -0.046 NA
ATOM     33  N   UNL     1       6.534   2.255   1.700  1.00  0.00    -0.131 NA
ATOM     34  N   UNL     1       6.442   0.133   1.513  1.00  0.00    -0.108 NA
ATOM     35  C   UNL     1       6.937   1.131   2.259  1.00  0.00     0.204 A 
BRANCH  35  36
ATOM     36  C   UNL     1       7.779   0.997   3.474  1.00  0.00     0.023 A 
ATOM     37  C   UNL     1       8.129  -0.267   3.945  1.00  0.00     0.014 A 
ATOM     38  C   UNL     1       8.225   2.133   4.144  1.00  0.00     0.014 A 
ATOM     39  C   UNL     1       8.912  -0.387   5.075  1.00  0.00     0.021 A 
ATOM     40  C   UNL     1       9.003   2.003   5.276  1.00  0.00     0.021 A 
ATOM     41  C   UNL     1       9.349   0.746   5.740  1.00  0.00     0.041 A 
ATOM     42  Cl  UNL     1      10.335   0.589   7.161  1.00  0.00    -0.084 Cl
ENDBRANCH  35  36
ENDBRANCH  30  31
ENDBRANCH   1  30
TORSDOF 9
