REMARK SMILES Cc1cc(/C=C(\C#N)C(=O)Nc2cc3c(cc2F)CCC(=O)N3)c(C)n1-c1ccc(F)cc1
REMARK SMILES IDX 5 1 6 2 4 3 1 4 2 5 26 6 3 7 24 8 25 9 27 10 33 11 28 12
REMARK SMILES IDX 32 13 29 14 30 15 31 16 7 17 8 18 9 19 10 20 11 21 12 23
REMARK SMILES IDX 17 24 13 25 16 26 18 27 14 28 15 29 23 30 19 31 21 32 20 34
REMARK SMILES IDX 22 35
REMARK H PARENT 11 22 23 33
REMARK Flexibility Score: inf
ROOT
ATOM      1  C   UNL     1       6.941   5.500  -1.646  1.00  0.00     0.035 C 
ATOM      2  C   UNL     1       5.774   6.179  -1.354  1.00  0.00     0.118 C 
ENDROOT
BRANCH   1   3
ATOM      3  C   UNL     1       8.150   6.217  -1.834  1.00  0.00    -0.003 A 
ATOM      4  C   UNL     1      10.254   9.098  -2.912  1.00  0.00     0.065 C 
ATOM      5  C   UNL     1       9.619   7.830  -2.403  1.00  0.00     0.020 A 
ATOM      6  N   UNL     1      10.290   6.779  -1.841  1.00  0.00    -0.318 N 
ATOM      7  C   UNL     1       8.305   7.552  -2.430  1.00  0.00     0.031 A 
ATOM      8  C   UNL     1       9.427   5.805  -1.489  1.00  0.00     0.027 A 
ATOM      9  C   UNL     1       9.789   4.495  -0.838  1.00  0.00     0.065 C 
BRANCH   6  10
ATOM     10  C   UNL     1      11.678   6.724  -1.653  1.00  0.00     0.046 A 
ATOM     11  C   UNL     1      12.297   7.611  -0.783  1.00  0.00     0.029 A 
ATOM     12  C   UNL     1      12.435   5.779  -2.333  1.00  0.00     0.029 A 
ATOM     13  C   UNL     1      13.665   7.556  -0.599  1.00  0.00     0.041 A 
ATOM     14  C   UNL     1      13.803   5.731  -2.150  1.00  0.00     0.041 A 
ATOM     15  C   UNL     1      14.419   6.617  -1.282  1.00  0.00     0.123 A 
ATOM     16  F   UNL     1      15.757   6.564  -1.100  1.00  0.00    -0.207 F 
ENDBRANCH   6  10
ENDBRANCH   1   3
BRANCH   2  17
ATOM     17  C   UNL     1       5.763   7.611  -1.342  1.00  0.00     0.105 C 
ATOM     18  N   UNL     1       5.754   8.747  -1.332  1.00  0.00    -0.192 NA
ENDBRANCH   2  17
BRANCH   2  19
ATOM     19  C   UNL     1       4.545   5.432  -1.056  1.00  0.00     0.266 C 
ATOM     20  O   UNL     1       4.555   4.215  -1.067  1.00  0.00    -0.268 OA
ATOM     21  N   UNL     1       3.406   6.094  -0.771  1.00  0.00    -0.319 N 
ATOM     22  H   UNL     1       3.374   7.120  -0.851  1.00  0.00     0.170 HD
BRANCH  21  23
ATOM     23  C   UNL     1       2.268   5.387  -0.368  1.00  0.00     0.079 A 
ATOM     24  C   UNL     1       1.004   5.933  -0.562  1.00  0.00     0.147 A 
ATOM     25  C   UNL     1       2.399   4.141   0.227  1.00  0.00     0.055 A 
ATOM     26  C   UNL     1      -0.121   5.234  -0.163  1.00  0.00     0.047 A 
ATOM     27  F   UNL     1       0.874   7.147  -1.141  1.00  0.00    -0.205 F 
ATOM     28  C   UNL     1       1.268   3.443   0.626  1.00  0.00     0.046 A 
ATOM     29  C   UNL     1       0.008   3.993   0.430  1.00  0.00    -0.021 A 
ATOM     30  N   UNL     1       1.395   2.185   1.227  1.00  0.00    -0.326 N 
ATOM     31  C   UNL     1      -1.218   3.232   0.866  1.00  0.00     0.047 C 
ATOM     32  C   UNL     1       0.344   1.346   1.281  1.00  0.00     0.224 C 
ATOM     33  H   UNL     1       2.299   1.900   1.631  1.00  0.00     0.169 HD
ATOM     34  C   UNL     1      -0.979   1.731   0.677  1.00  0.00     0.105 C 
ATOM     35  O   UNL     1       0.467   0.266   1.818  1.00  0.00    -0.275 OA
ENDBRANCH  21  23
ENDBRANCH   2  19
TORSDOF 5
