REMARK SMILES CCc1cccc2c(C(=O)[C@@H](Nc3cccc(NC(=O)[C@H](C)n4cccn4)c3)c3ccccc3)c[nH]c12
REMARK SMILES IDX 12 1 11 3 9 4 10 5 8 6 3 7 37 8 4 9 7 10 36 11 5 12 6 13
REMARK SMILES IDX 35 14 2 16 1 17 29 18 34 19 30 20 33 21 31 22 32 23 13 24
REMARK SMILES IDX 28 25 14 26 17 27 15 28 16 29 18 30 19 31 20 33 21 34 22 35
REMARK SMILES IDX 23 36 27 37 24 38 26 39 25 40
REMARK H PARENT 12 2 36 15 18 32
REMARK Flexibility Score: inf
ROOT
ATOM      1  N   UNL     1      -0.040   5.216   0.370  1.00  0.00    -0.371 N 
ATOM      2  H   UNL     1      -0.929   5.714   0.514  1.00  0.00     0.161 HD
ENDROOT
BRANCH   1   3
ATOM      3  C   UNL     1       1.222   5.960   0.357  1.00  0.00     0.182 C 
BRANCH   3   4
ATOM      4  C   UNL     1       1.064   7.233   1.147  1.00  0.00     0.191 C 
ATOM      5  O   UNL     1      -0.045   7.632   1.438  1.00  0.00    -0.291 OA
BRANCH   4   6
ATOM      6  C   UNL     1       2.209   7.964   1.551  1.00  0.00     0.045 A 
ATOM      7  C   UNL     1       3.930  10.708   3.171  1.00  0.00    -0.024 A 
ATOM      8  C   UNL     1       3.586   9.555   2.474  1.00  0.00     0.049 A 
ATOM      9  C   UNL     1       2.944  11.509   3.705  1.00  0.00     0.006 A 
ATOM     10  C   UNL     1       2.231   9.221   2.324  1.00  0.00     0.011 A 
ATOM     11  N   UNL     1       4.330   8.578   1.843  1.00  0.00    -0.360 N 
ATOM     12  C   UNL     1       1.606  11.178   3.555  1.00  0.00     0.001 A 
ATOM     13  C   UNL     1       1.245  10.039   2.868  1.00  0.00     0.011 A 
ATOM     14  C   UNL     1       3.526   7.640   1.305  1.00  0.00     0.095 A 
ATOM     15  H   UNL     1       5.358   8.568   1.790  1.00  0.00     0.166 HD
BRANCH   7  16
ATOM     16  C   UNL     1       5.380  11.082   3.342  1.00  0.00     0.034 C 
ATOM     17  C   UNL     1       5.855  11.859   2.113  1.00  0.00     0.009 C 
ENDBRANCH   7  16
ENDBRANCH   4   6
ENDBRANCH   3   4
BRANCH   3  18
ATOM     18  C   UNL     1       1.594   6.294  -1.065  1.00  0.00    -0.018 A 
ATOM     19  C   UNL     1       2.911   6.207  -1.474  1.00  0.00     0.006 A 
ATOM     20  C   UNL     1       0.616   6.681  -1.962  1.00  0.00     0.006 A 
ATOM     21  C   UNL     1       3.252   6.514  -2.778  1.00  0.00     0.000 A 
ATOM     22  C   UNL     1       0.957   6.992  -3.265  1.00  0.00     0.000 A 
ATOM     23  C   UNL     1       2.275   6.906  -3.674  1.00  0.00     0.000 A 
ENDBRANCH   3  18
ENDBRANCH   1   3
BRANCH   1  24
ATOM     24  C   UNL     1      -0.036   3.831   0.187  1.00  0.00     0.037 A 
ATOM     25  C   UNL     1      -1.231   3.126   0.199  1.00  0.00     0.051 A 
ATOM     26  C   UNL     1       1.164   3.158  -0.008  1.00  0.00     0.026 A 
ATOM     27  C   UNL     1      -1.224   1.751   0.012  1.00  0.00     0.043 A 
ATOM     28  C   UNL     1       1.168   1.789  -0.190  1.00  0.00     0.004 A 
ATOM     29  C   UNL     1      -0.021   1.084  -0.177  1.00  0.00     0.026 A 
BRANCH  27  30
ATOM     30  N   UNL     1      -2.427   1.037   0.019  1.00  0.00    -0.324 N 
ATOM     31  C   UNL     1      -2.463  -0.219   0.506  1.00  0.00     0.248 C 
ATOM     32  H   UNL     1      -3.286   1.472  -0.348  1.00  0.00     0.170 HD
ATOM     33  O   UNL     1      -1.476  -0.697   1.025  1.00  0.00    -0.272 OA
BRANCH  31  34
ATOM     34  C   UNL     1      -3.728  -1.031   0.406  1.00  0.00     0.193 C 
ATOM     35  C   UNL     1      -4.855  -0.314   1.152  1.00  0.00     0.044 C 
BRANCH  34  36
ATOM     36  N   UNL     1      -3.510  -2.351   1.002  1.00  0.00    -0.261 N 
ATOM     37  N   UNL     1      -3.146  -3.516   0.315  1.00  0.00    -0.181 NA
ATOM     38  C   UNL     1      -3.619  -2.659   2.311  1.00  0.00     0.109 A 
ATOM     39  C   UNL     1      -3.046  -4.489   1.183  1.00  0.00     0.135 A 
ATOM     40  C   UNL     1      -3.343  -3.976   2.450  1.00  0.00     0.042 A 
ENDBRANCH  34  36
ENDBRANCH  31  34
ENDBRANCH  27  30
ENDBRANCH   1  24
TORSDOF 9
