REMARK SMILES C[C@@H]1CC[N@H+]([C@@H](C)COc2ccc([C@@H]3Oc4ccc(O)c(F)c4S[C@@H]3c3cccc(O)c3)cc2)C1
REMARK SMILES IDX 10 1 11 2 12 3 13 4 33 5 34 6 9 7 8 8 6 9 7 10 5 11 1 12
REMARK SMILES IDX 2 13 35 14 3 15 4 16 14 18 15 19 25 20 16 21 24 22 23 23
REMARK SMILES IDX 17 24 21 25 18 26 19 27 22 28 26 29 32 30 27 31 30 32 28 33
REMARK SMILES IDX 29 34 31 35 20 37
REMARK H PARENT 5 17 31 36 20 38
REMARK Flexibility Score: inf
ROOT
ATOM      1  C   UNL     1       3.886  -0.466   3.556  1.00  0.00     0.119 A 
ATOM      2  C   UNL     1       4.387   0.377   4.538  1.00  0.00     0.047 A 
ATOM      3  C   UNL     1       5.719   0.742   4.519  1.00  0.00     0.011 A 
ATOM      4  C   UNL     1       6.550   0.278   3.516  1.00  0.00    -0.006 A 
ATOM      5  C   UNL     1       6.052  -0.557   2.533  1.00  0.00     0.011 A 
ATOM      6  C   UNL     1       4.722  -0.930   2.551  1.00  0.00     0.047 A 
ENDROOT
BRANCH   1   7
ATOM      7  O   UNL     1       2.577  -0.831   3.576  1.00  0.00    -0.487 OA
BRANCH   7   8
ATOM      8  C   UNL     1       1.776  -0.315   4.640  1.00  0.00     0.294 C 
BRANCH   8   9
ATOM      9  C   UNL     1       0.343  -0.831   4.496  1.00  0.00     0.219 C 
ATOM     10  C   UNL     1       0.356  -2.360   4.428  1.00  0.00     0.079 C 
BRANCH   9  11
ATOM     11  N   UNL     1      -0.278  -0.266   3.254  1.00  0.00    -0.330 N 
ATOM     12  C   UNL     1      -2.219   2.762   2.769  1.00  0.00     0.014 C 
ATOM     13  C   UNL     1      -1.398   1.569   2.274  1.00  0.00     0.047 C 
ATOM     14  C   UNL     1      -0.314   1.195   3.308  1.00  0.00     0.265 C 
ATOM     15  C   UNL     1      -2.290   0.316   2.158  1.00  0.00     0.070 C 
ATOM     16  C   UNL     1      -1.670  -0.710   3.131  1.00  0.00     0.263 C 
ATOM     17  H   UNL     1       0.292  -0.591   2.460  1.00  0.00     0.348 HD
ENDBRANCH   9  11
ENDBRANCH   8   9
ENDBRANCH   7   8
ENDBRANCH   1   7
BRANCH   4  18
ATOM     18  C   UNL     1       8.002   0.683   3.494  1.00  0.00     0.221 C 
ATOM     19  O   UNL     1       8.512   0.691   4.818  1.00  0.00    -0.483 OA
ATOM     20  C   UNL     1       8.133   2.094   2.897  1.00  0.00     0.127 C 
ATOM     21  C   UNL     1       9.793   1.036   5.091  1.00  0.00     0.137 A 
ATOM     22  S   UNL     1       9.913   2.438   2.731  1.00  0.00    -0.107 SA
ATOM     23  C   UNL     1      10.565   1.840   4.261  1.00  0.00     0.090 A 
ATOM     24  C   UNL     1      10.345   0.570   6.282  1.00  0.00     0.052 A 
ATOM     25  C   UNL     1      11.861   2.184   4.622  1.00  0.00     0.182 A 
ATOM     26  C   UNL     1      11.634   0.909   6.640  1.00  0.00     0.053 A 
ATOM     27  C   UNL     1      12.398   1.720   5.814  1.00  0.00     0.152 A 
ATOM     28  F   UNL     1      12.601   2.972   3.811  1.00  0.00    -0.202 F 
BRANCH  20  29
ATOM     29  C   UNL     1       7.495   3.103   3.816  1.00  0.00    -0.027 A 
ATOM     30  C   UNL     1       8.140   3.483   4.977  1.00  0.00     0.051 A 
ATOM     31  C   UNL     1       6.268   3.652   3.495  1.00  0.00     0.005 A 
ATOM     32  C   UNL     1       7.553   4.413   5.823  1.00  0.00     0.115 A 
ATOM     33  C   UNL     1       5.678   4.574   4.339  1.00  0.00     0.004 A 
ATOM     34  C   UNL     1       6.319   4.958   5.501  1.00  0.00     0.046 A 
BRANCH  32  35
ATOM     35  O   UNL     1       8.186   4.789   6.966  1.00  0.00    -0.508 OA
ATOM     36  H   UNL     1       7.539   4.596   7.690  1.00  0.00     0.293 HD
ENDBRANCH  32  35
ENDBRANCH  20  29
BRANCH  27  37
ATOM     37  O   UNL     1      13.667   2.058   6.170  1.00  0.00    -0.505 OA
ATOM     38  H   UNL     1      14.130   1.194   6.309  1.00  0.00     0.293 HD
ENDBRANCH  27  37
ENDBRANCH   4  18
TORSDOF 8
