REMARK SMILES C/C(=N/NC(=O)c1nnn(-c2nonc2N)c1CSc1ccc(C)cc1)c1cccc2ccccc12
REMARK SMILES IDX 17 1 7 2 8 3 9 4 10 5 18 6 19 7 20 8 24 9 23 10 25 11 22 12
REMARK SMILES IDX 26 13 21 14 11 15 12 16 15 17 13 18 14 19 16 20 5 23 6 24
REMARK SMILES IDX 4 25 3 27 2 28 1 29 27 30 36 31 28 32 31 33 35 34 29 35
REMARK SMILES IDX 30 36 32 37 34 38 33 39
REMARK H PARENT 16 21 16 22 4 26
REMARK Flexibility Score: inf
ROOT
ATOM      1  C   UNL     1       2.262   3.696  -0.027  1.00  0.00     0.090 A 
ATOM      2  C   UNL     1       2.221   4.522  -1.115  1.00  0.00     0.176 A 
ATOM      3  N   UNL     1       2.309   5.794  -0.687  1.00  0.00    -0.124 NA
ATOM      4  N   UNL     1       2.401   5.813   0.597  1.00  0.00    -0.060 NA
ATOM      5  N   UNL     1       2.369   4.490   1.062  1.00  0.00    -0.191 N 
ENDROOT
BRANCH   1   6
ATOM      6  C   UNL     1       2.194   2.191  -0.038  1.00  0.00     0.134 C 
BRANCH   6   7
ATOM      7  S   UNL     1       0.462   1.663   0.078  1.00  0.00    -0.120 SA
BRANCH   7   8
ATOM      8  C   UNL     1       0.550  -0.096   0.053  1.00  0.00     0.008 A 
ATOM      9  C   UNL     1       0.763  -4.364  -0.009  1.00  0.00     0.044 C 
ATOM     10  C   UNL     1       0.688  -2.860   0.013  1.00  0.00    -0.051 A 
ATOM     11  C   UNL     1       1.848  -2.110  -0.060  1.00  0.00     0.004 A 
ATOM     12  C   UNL     1      -0.541  -2.232   0.107  1.00  0.00     0.004 A 
ATOM     13  C   UNL     1       1.782  -0.731  -0.046  1.00  0.00     0.015 A 
ATOM     14  C   UNL     1      -0.613  -0.853   0.127  1.00  0.00     0.015 A 
ENDBRANCH   7   8
ENDBRANCH   6   7
ENDBRANCH   1   6
BRANCH   5  15
ATOM     15  C   UNL     1       2.439   4.073   2.396  1.00  0.00     0.243 A 
ATOM     16  N   UNL     1       2.405   2.838   2.811  1.00  0.00    -0.027 NA
ATOM     17  C   UNL     1       2.555   4.950   3.564  1.00  0.00     0.215 A 
ATOM     18  O   UNL     1       2.503   2.852   4.224  1.00  0.00    -0.240 OA
ATOM     19  N   UNL     1       2.591   4.205   4.635  1.00  0.00    -0.030 NA
BRANCH  17  20
ATOM     20  N   UNL     1       2.616   6.339   3.537  1.00  0.00    -0.378 N 
ATOM     21  H   UNL     1       2.575   6.768   2.602  1.00  0.00     0.158 HD
ATOM     22  H   UNL     1       2.698   6.915   4.386  1.00  0.00     0.158 HD
ENDBRANCH  17  20
ENDBRANCH   5  15
BRANCH   2  23
ATOM     23  C   UNL     1       2.101   4.091  -2.520  1.00  0.00     0.293 C 
ATOM     24  O   UNL     1       2.121   2.907  -2.796  1.00  0.00    -0.265 OA
ATOM     25  N   UNL     1       1.970   5.010  -3.497  1.00  0.00    -0.241 N 
ATOM     26  H   UNL     1       2.031   6.013  -3.273  1.00  0.00     0.194 HD
BRANCH  25  27
ATOM     27  N   UNL     1       1.750   4.599  -4.819  1.00  0.00    -0.177 NA
ATOM     28  C   UNL     1       1.730   5.477  -5.777  1.00  0.00     0.066 C 
ATOM     29  C   UNL     1       1.583   5.028  -7.208  1.00  0.00     0.069 C 
BRANCH  28  30
ATOM     30  C   UNL     1       1.851   6.910  -5.464  1.00  0.00     0.005 A 
ATOM     31  C   UNL     1       0.737   7.823  -5.708  1.00  0.00    -0.009 A 
ATOM     32  C   UNL     1       3.026   7.422  -4.926  1.00  0.00     0.011 A 
ATOM     33  C   UNL     1       0.895   9.195  -5.393  1.00  0.00    -0.018 A 
ATOM     34  C   UNL     1      -0.476   7.372  -6.242  1.00  0.00     0.009 A 
ATOM     35  C   UNL     1       3.138   8.775  -4.637  1.00  0.00     0.001 A 
ATOM     36  C   UNL     1       2.114   9.644  -4.856  1.00  0.00     0.009 A 
ATOM     37  C   UNL     1      -0.172  10.080  -5.623  1.00  0.00     0.009 A 
ATOM     38  C   UNL     1      -1.491   8.257  -6.453  1.00  0.00     0.001 A 
ATOM     39  C   UNL     1      -1.338   9.607  -6.144  1.00  0.00     0.001 A 
ENDBRANCH  28  30
ENDBRANCH  25  27
ENDBRANCH   2  23
TORSDOF 8
