REMARK SMILES CC1(C)[C@H](O)CC[C@@]2(C)[C@@H]1CC[C@@]1(C)[C@@H]2C=CC2=C3C[C@@](C)(C(=O)OCC[NH3+])CC(=O)[C@@]3(C)CC[C@@]21C
REMARK SMILES IDX 25 1 23 2 24 3 21 4 1 5 2 6 4 7 10 8 3 9 6 10 8 11 11 12
REMARK SMILES IDX 7 13 15 14 9 15 12 16 13 17 16 18 36 19 14 20 17 21 18 22
REMARK SMILES IDX 35 23 37 24 19 25 34 26 32 27 20 28 30 29 33 30 29 31 31 32
REMARK SMILES IDX 22 33 5 34 26 36 27 37 28 38
REMARK H PARENT 5 35 28 39 28 40 28 41
REMARK Flexibility Score: inf
ROOT
ATOM      1  O   UNL     1      -2.410  -0.433  -0.106  1.00  0.00    -0.459 OA
ENDROOT
BRANCH   1   2
ATOM      2  C   UNL     1      -1.639  -0.580   0.982  1.00  0.00     0.312 C 
ATOM      3  O   UNL     1      -2.120  -0.991   2.012  1.00  0.00    -0.252 OA
BRANCH   2   4
ATOM      4  C   UNL     1      -0.173  -0.234   0.920  1.00  0.00     0.076 C 
ATOM      5  C   UNL     1      -0.072  -0.763  10.233  1.00  0.00     0.014 C 
ATOM      6  C   UNL     1      -1.408  -1.498  10.318  1.00  0.00    -0.006 C 
ATOM      7  C   UNL     1      -1.130  -2.991  10.537  1.00  0.00     0.120 C 
ATOM      8  C   UNL     1      -2.302  -1.268   9.123  1.00  0.00     0.004 C 
ATOM      9  C   UNL     1      -2.135  -0.996  11.587  1.00  0.00     0.014 C 
ATOM     10  C   UNL     1      -0.576  -3.599   9.251  1.00  0.00     0.033 C 
ATOM     11  C   UNL     1      -2.010  -2.052   7.862  1.00  0.00    -0.022 C 
ATOM     12  C   UNL     1      -2.518   0.204   8.804  1.00  0.00     0.005 C 
ATOM     13  C   UNL     1      -1.658  -3.516   8.179  1.00  0.00     0.010 C 
ATOM     14  C   UNL     1      -0.899  -1.456   7.018  1.00  0.00     0.025 C 
ATOM     15  C   UNL     1      -3.316  -2.143   7.039  1.00  0.00     0.012 C 
ATOM     16  C   UNL     1      -1.400   0.846   8.020  1.00  0.00     0.008 C 
ATOM     17  C   UNL     1      -0.827   0.040   6.872  1.00  0.00    -0.016 C 
ATOM     18  C   UNL     1      -0.805  -2.207   5.719  1.00  0.00    -0.022 C 
ATOM     19  C   UNL     1      -1.316   0.597   5.538  1.00  0.00    -0.002 C 
ATOM     20  C   UNL     1       0.705   0.339   6.905  1.00  0.00     0.013 C 
ATOM     21  C   UNL     1      -0.712  -1.646   4.530  1.00  0.00     0.000 C 
ATOM     22  C   UNL     1      -0.688  -0.172   4.410  1.00  0.00    -0.042 C 
ATOM     23  C   UNL     1      -1.054   2.092   5.419  1.00  0.00     0.013 C 
ATOM     24  C   UNL     1      -2.835   0.429   5.420  1.00  0.00     0.017 C 
ATOM     25  C   UNL     1      -0.168   0.383   3.327  1.00  0.00    -0.052 C 
ATOM     26  C   UNL     1      -1.237   2.551   3.972  1.00  0.00     0.020 C 
ATOM     27  C   UNL     1      -0.220   1.862   3.073  1.00  0.00     0.048 C 
ATOM     28  C   UNL     1       0.473  -0.499   2.279  1.00  0.00     0.051 C 
ATOM     29  C   UNL     1      -0.585   2.111   1.630  1.00  0.00     0.143 C 
ATOM     30  C   UNL     1       1.165   2.460   3.330  1.00  0.00     0.024 C 
ATOM     31  C   UNL     1      -0.010   1.241   0.544  1.00  0.00     0.095 C 
ATOM     32  O   UNL     1      -1.340   3.013   1.356  1.00  0.00    -0.299 OA
ATOM     33  C   UNL     1       0.506  -1.104  -0.140  1.00  0.00     0.024 C 
BRANCH   7  34
ATOM     34  O   UNL     1      -0.177  -3.144  11.590  1.00  0.00    -0.393 OA
ATOM     35  H   UNL     1      -0.537  -2.750  12.424  1.00  0.00     0.210 HD
ENDBRANCH   7  34
ENDBRANCH   2   4
ENDBRANCH   1   2
BRANCH   1  36
ATOM     36  C   UNL     1      -3.813  -0.786   0.026  1.00  0.00     0.294 C 
BRANCH  36  37
ATOM     37  C   UNL     1      -4.526  -0.554  -1.307  1.00  0.00     0.301 C 
BRANCH  37  38
ATOM     38  N   UNL     1      -3.963  -1.467  -2.318  1.00  0.00    -0.355 N 
ATOM     39  H   UNL     1      -4.102  -2.443  -2.021  1.00  0.00     0.344 HD
ATOM     40  H   UNL     1      -2.956  -1.282  -2.431  1.00  0.00     0.344 HD
ATOM     41  H   UNL     1      -4.440  -1.315  -3.218  1.00  0.00     0.344 HD
ENDBRANCH  37  38
ENDBRANCH  36  37
ENDBRANCH   1  36
TORSDOF 6
