REMARK SMILES C/C(N)=C(/C#N)C(=O)CSC1=N/C(=C\c2ccc(C(C)C)cc2)C(=O)N1c1ccc(C)cc1
REMARK SMILES IDX 9 1 10 2 11 3 26 4 24 5 12 6 25 7 13 8 14 9 27 10 31 11
REMARK SMILES IDX 30 12 32 13 29 14 33 15 28 16 15 17 23 18 16 19 22 20 17 21
REMARK SMILES IDX 18 22 19 23 20 24 21 25 7 26 8 27 4 28 2 29 1 30 5 31 6 32
REMARK SMILES IDX 3 33
REMARK H PARENT 3 34 3 35
REMARK Flexibility Score: inf
ROOT
ATOM      1  C   UNL     1      -1.063  -0.675   0.205  1.00  0.00     0.160 C 
ENDROOT
BRANCH   1   2
ATOM      2  S   UNL     1      -0.919  -2.128  -0.864  1.00  0.00    -0.079 SA
BRANCH   2   3
ATOM      3  C   UNL     1      -2.588  -2.274  -1.409  1.00  0.00     0.176 C 
ATOM      4  N   UNL     1      -3.044  -3.246  -2.268  1.00  0.00    -0.254 N 
ATOM      5  C   UNL     1      -4.367  -3.053  -2.464  1.00  0.00     0.283 C 
ATOM      6  N   UNL     1      -3.558  -1.476  -1.046  1.00  0.00    -0.218 NA
ATOM      7  O   UNL     1      -5.112  -3.715  -3.162  1.00  0.00    -0.266 OA
ATOM      8  C   UNL     1      -4.717  -1.870  -1.653  1.00  0.00     0.132 C 
ATOM      9  C   UNL     1      -5.947  -1.292  -1.531  1.00  0.00     0.042 C 
BRANCH   4  10
ATOM     10  C   UNL     1      -2.269  -4.264  -2.841  1.00  0.00     0.051 A 
ATOM     11  C   UNL     1       0.093  -7.367  -4.589  1.00  0.00     0.044 C 
ATOM     12  C   UNL     1      -0.740  -6.273  -3.973  1.00  0.00    -0.051 A 
ATOM     13  C   UNL     1      -0.835  -5.043  -4.598  1.00  0.00     0.005 A 
ATOM     14  C   UNL     1      -1.407  -6.501  -2.783  1.00  0.00     0.005 A 
ATOM     15  C   UNL     1      -1.602  -4.040  -4.038  1.00  0.00     0.027 A 
ATOM     16  C   UNL     1      -2.171  -5.500  -2.216  1.00  0.00     0.027 A 
ENDBRANCH   4  10
BRANCH   9  17
ATOM     17  C   UNL     1      -6.150  -0.194  -0.578  1.00  0.00    -0.023 A 
ATOM     18  C   UNL     1      -5.130   0.164   0.312  1.00  0.00     0.008 A 
ATOM     19  C   UNL     1      -7.364   0.505  -0.557  1.00  0.00     0.008 A 
ATOM     20  C   UNL     1      -5.329   1.197   1.203  1.00  0.00     0.004 A 
ATOM     21  C   UNL     1      -7.548   1.531   0.344  1.00  0.00     0.004 A 
ATOM     22  C   UNL     1      -6.534   1.879   1.220  1.00  0.00    -0.045 A 
BRANCH  22  23
ATOM     23  C   UNL     1      -6.742   3.006   2.198  1.00  0.00     0.013 C 
ATOM     24  C   UNL     1      -7.032   4.298   1.432  1.00  0.00     0.012 C 
ATOM     25  C   UNL     1      -7.926   2.677   3.110  1.00  0.00     0.012 C 
ENDBRANCH  22  23
ENDBRANCH   9  17
ENDBRANCH   2   3
ENDBRANCH   1   2
BRANCH   1  26
ATOM     26  C   UNL     1       0.283  -0.353   0.800  1.00  0.00     0.185 C 
ATOM     27  O   UNL     1       1.247  -1.040   0.527  1.00  0.00    -0.292 OA
BRANCH  26  28
ATOM     28  C   UNL     1       0.425   0.750   1.676  1.00  0.00     0.114 C 
ATOM     29  C   UNL     1       1.626   0.966   2.327  1.00  0.00     0.027 C 
ATOM     30  C   UNL     1       2.722  -0.065   2.249  1.00  0.00     0.065 C 
BRANCH  28  31
ATOM     31  C   UNL     1      -0.674   1.644   1.884  1.00  0.00     0.105 C 
ATOM     32  N   UNL     1      -1.545   2.354   2.049  1.00  0.00    -0.192 NA
ENDBRANCH  28  31
BRANCH  29  33
ATOM     33  N   UNL     1       1.817   2.101   3.031  1.00  0.00    -0.401 N 
ATOM     34  H   UNL     1       1.068   2.806   3.084  1.00  0.00     0.156 HD
ATOM     35  H   UNL     1       2.711   2.263   3.516  1.00  0.00     0.156 HD
ENDBRANCH  29  33
ENDBRANCH  26  28
ENDBRANCH   1  26
TORSDOF 9
