REMARK SMILES O=C(NC[C@H]1C[C@@H]2CC[N@H+]1C[C@@H]2CN1CCN(C(=O)c2ccc(C(F)(F)F)cc2)CC1)c1ccc(C(F)(F)F)cc1
REMARK SMILES IDX 5 1 6 2 7 3 8 4 9 5 11 6 12 7 10 8 4 10 3 11 2 12 1 13 32 15
REMARK SMILES IDX 33 16 34 17 41 18 35 19 40 20 36 21 37 22 38 23 39 24 13 25
REMARK SMILES IDX 14 26 15 27 31 28 16 29 30 30 17 31 18 32 19 33 20 34 29 35
REMARK SMILES IDX 21 36 28 37 22 38 23 39 24 40 25 41 26 42 27 43
REMARK H PARENT 10 9 3 14
REMARK Flexibility Score: inf
ROOT
ATOM      1  C   UNL     1      -0.740   9.285   4.074  1.00  0.00     0.203 C 
ATOM      2  C   UNL     1       0.459  10.234   3.987  1.00  0.00     0.071 C 
ATOM      3  C   UNL     1       0.531  10.815   2.566  1.00  0.00     0.010 C 
ATOM      4  C   UNL     1      -0.781  11.554   2.273  1.00  0.00     0.066 C 
ATOM      5  C   UNL     1      -1.946  10.566   2.411  1.00  0.00     0.262 C 
ATOM      6  C   UNL     1      -0.533   8.721   1.727  1.00  0.00     0.267 C 
ATOM      7  C   UNL     1       0.671   9.654   1.573  1.00  0.00     0.062 C 
ATOM      8  N   UNL     1      -1.446   9.224   2.777  1.00  0.00    -0.331 N 
ATOM      9  H   UNL     1      -2.245   8.580   2.861  1.00  0.00     0.348 HD
ENDROOT
BRANCH   1  10
ATOM     10  C   UNL     1      -0.254   7.881   4.442  1.00  0.00     0.181 C 
BRANCH  10  11
ATOM     11  N   UNL     1      -1.383   6.949   4.407  1.00  0.00    -0.346 N 
ATOM     12  C   UNL     1      -1.191   5.647   4.698  1.00  0.00     0.251 C 
ATOM     13  O   UNL     1      -0.081   5.247   4.990  1.00  0.00    -0.269 OA
ATOM     14  H   UNL     1      -2.324   7.288   4.159  1.00  0.00     0.164 HD
BRANCH  12  15
ATOM     15  C   UNL     1      -2.331   4.705   4.662  1.00  0.00     0.039 A 
ATOM     16  C   UNL     1      -3.607   5.163   4.332  1.00  0.00     0.014 A 
ATOM     17  C   UNL     1      -4.666   4.278   4.296  1.00  0.00     0.014 A 
ATOM     18  C   UNL     1      -2.135   3.357   4.963  1.00  0.00     0.014 A 
ATOM     19  C   UNL     1      -4.465   2.943   4.596  1.00  0.00     0.056 A 
ATOM     20  C   UNL     1      -3.203   2.484   4.928  1.00  0.00     0.014 A 
BRANCH  19  21
ATOM     21  C   UNL     1      -5.627   1.983   4.559  1.00  0.00     0.416 C 
ATOM     22  F   UNL     1      -6.231   1.935   5.820  1.00  0.00    -0.166 F 
ATOM     23  F   UNL     1      -6.560   2.417   3.611  1.00  0.00    -0.166 F 
ATOM     24  F   UNL     1      -5.168   0.708   4.213  1.00  0.00    -0.166 F 
ENDBRANCH  19  21
ENDBRANCH  12  15
ENDBRANCH  10  11
ENDBRANCH   1  10
BRANCH   7  25
ATOM     25  C   UNL     1       1.959   8.882   1.865  1.00  0.00     0.094 C 
BRANCH  25  26
ATOM     26  N   UNL     1       2.111   7.817   0.852  1.00  0.00    -0.299 NA
ATOM     27  C   UNL     1       2.610   8.394  -0.415  1.00  0.00     0.106 C 
ATOM     28  C   UNL     1       3.046   6.782   1.343  1.00  0.00     0.106 C 
ATOM     29  C   UNL     1       2.611   7.299  -1.487  1.00  0.00     0.135 C 
ATOM     30  C   UNL     1       3.061   5.617   0.341  1.00  0.00     0.135 C 
ATOM     31  N   UNL     1       3.390   6.156  -0.988  1.00  0.00    -0.336 N 
ATOM     32  C   UNL     1       4.376   5.614  -1.729  1.00  0.00     0.253 C 
ATOM     33  O   UNL     1       4.697   6.128  -2.783  1.00  0.00    -0.269 OA
BRANCH  32  34
ATOM     34  C   UNL     1       5.066   4.393  -1.262  1.00  0.00     0.040 A 
ATOM     35  C   UNL     1       4.372   3.435  -0.521  1.00  0.00     0.014 A 
ATOM     36  C   UNL     1       6.416   4.194  -1.559  1.00  0.00     0.014 A 
ATOM     37  C   UNL     1       5.023   2.298  -0.088  1.00  0.00     0.014 A 
ATOM     38  C   UNL     1       7.054   3.053  -1.119  1.00  0.00     0.014 A 
ATOM     39  C   UNL     1       6.359   2.104  -0.391  1.00  0.00     0.056 A 
BRANCH  39  40
ATOM     40  C   UNL     1       7.061   0.857   0.081  1.00  0.00     0.416 C 
ATOM     41  F   UNL     1       7.616   1.083   1.345  1.00  0.00    -0.166 F 
ATOM     42  F   UNL     1       6.143  -0.196   0.156  1.00  0.00    -0.166 F 
ATOM     43  F   UNL     1       8.078   0.525  -0.822  1.00  0.00    -0.166 F 
ENDBRANCH  39  40
ENDBRANCH  32  34
ENDBRANCH  25  26
ENDBRANCH   7  25
TORSDOF 8
