REMARK SMILES O=c1nc[nH]c2cc(NCc3ccccc3C[NH+]3CCN(c4ccccc4)CC3)c([N+](=O)[O-])cc12
REMARK SMILES IDX 16 1 15 2 14 3 13 4 12 5 11 6 17 7 18 8 21 9 28 10 20 11
REMARK SMILES IDX 29 12 19 13 22 15 25 16 26 17 24 18 27 19 23 20 10 21 9 22
REMARK SMILES IDX 8 24 30 25 7 26 34 27 6 28 35 29 5 30 2 31 4 32 1 34 3 35
REMARK SMILES IDX 31 36 33 37 32 38
REMARK H PARENT 18 14 9 23 5 33
REMARK Flexibility Score: inf
ROOT
ATOM      1  C   UNL     1      -1.185   0.892   1.495  1.00  0.00     0.011 A 
ATOM      2  C   UNL     1      -1.782   1.560   2.548  1.00  0.00     0.010 A 
ATOM      3  C   UNL     1      -1.136   2.628   3.143  1.00  0.00     0.001 A 
ATOM      4  C   UNL     1       0.106   3.027   2.686  1.00  0.00     0.000 A 
ATOM      5  C   UNL     1       0.705   2.355   1.637  1.00  0.00     0.006 A 
ATOM      6  C   UNL     1       0.057   1.291   1.038  1.00  0.00    -0.020 A 
ENDROOT
BRANCH   1   7
ATOM      7  C   UNL     1      -1.889  -0.272   0.846  1.00  0.00     0.299 C 
BRANCH   7   8
ATOM      8  N   UNL     1      -2.512   0.170  -0.409  1.00  0.00    -0.328 N 
ATOM      9  N   UNL     1      -4.622   0.378  -2.310  1.00  0.00    -0.360 N 
ATOM     10  C   UNL     1      -4.251   1.527  -1.472  1.00  0.00     0.178 C 
ATOM     11  C   UNL     1      -3.455  -0.475  -2.574  1.00  0.00     0.178 C 
ATOM     12  C   UNL     1      -3.679   1.024  -0.144  1.00  0.00     0.284 C 
ATOM     13  C   UNL     1      -2.883  -0.979  -1.246  1.00  0.00     0.284 C 
ATOM     14  H   UNL     1      -1.819   0.730  -0.925  1.00  0.00     0.348 HD
BRANCH   9  15
ATOM     15  C   UNL     1      -5.214   0.799  -3.502  1.00  0.00     0.037 A 
ATOM     16  C   UNL     1      -6.388   1.633  -5.865  1.00  0.00     0.000 A 
ATOM     17  C   UNL     1      -5.271   0.818  -5.900  1.00  0.00     0.002 A 
ATOM     18  C   UNL     1      -6.920   2.032  -4.652  1.00  0.00     0.002 A 
ATOM     19  C   UNL     1      -4.680   0.405  -4.722  1.00  0.00     0.026 A 
ATOM     20  C   UNL     1      -6.336   1.617  -3.471  1.00  0.00     0.026 A 
ENDBRANCH   9  15
ENDBRANCH   7   8
ENDBRANCH   1   7
BRANCH   6  21
ATOM     21  C   UNL     1       0.707   0.562  -0.109  1.00  0.00     0.149 C 
BRANCH  21  22
ATOM     22  N   UNL     1       0.128   1.024  -1.373  1.00  0.00    -0.375 N 
ATOM     23  H   UNL     1      -0.618   1.734  -1.368  1.00  0.00     0.161 HD
BRANCH  22  24
ATOM     24  C   UNL     1       0.585   0.503  -2.580  1.00  0.00     0.115 A 
ATOM     25  C   UNL     1       0.126   1.039  -3.784  1.00  0.00     0.293 A 
ATOM     26  C   UNL     1       1.499  -0.542  -2.577  1.00  0.00     0.060 A 
ATOM     27  C   UNL     1       0.563   0.540  -4.977  1.00  0.00     0.104 A 
ATOM     28  C   UNL     1       1.946  -1.060  -3.781  1.00  0.00     0.055 A 
ATOM     29  C   UNL     1       1.477  -0.513  -4.992  1.00  0.00     0.072 A 
ATOM     30  N   UNL     1       2.850  -2.102  -3.837  1.00  0.00    -0.346 N 
ATOM     31  C   UNL     1       1.982  -1.090  -6.247  1.00  0.00     0.280 A 
ATOM     32  C   UNL     1       3.268  -2.579  -5.024  1.00  0.00     0.201 A 
ATOM     33  H   UNL     1       3.207  -2.518  -2.965  1.00  0.00     0.167 HD
ATOM     34  O   UNL     1       1.614  -0.661  -7.328  1.00  0.00    -0.267 OA
ATOM     35  N   UNL     1       2.863  -2.107  -6.170  1.00  0.00    -0.199 NA
BRANCH  25  36
ATOM     36  N   UNL     1      -0.845   2.156  -3.766  1.00  0.00     0.065 N 
ATOM     37  O   UNL     1      -1.160   2.705  -4.807  1.00  0.00    -0.258 OA
ATOM     38  O   UNL     1      -1.328   2.527  -2.712  1.00  0.00    -0.258 OA
ENDBRANCH  25  36
ENDBRANCH  22  24
ENDBRANCH  21  22
ENDBRANCH   6  21
TORSDOF 7
