REMARK SMILES Cc1ccc(Nc2nc(CSc3nnnn3-c3ccc(O)cc3)cs2)cc1
REMARK SMILES IDX 10 1 9 2 7 3 25 4 8 5 24 6 6 7 5 9 1 10 2 11 27 12 3 13
REMARK SMILES IDX 26 14 4 15 11 16 12 17 16 18 13 19 15 20 14 21 17 22 23 23
REMARK SMILES IDX 18 24 22 25 19 26 20 27 21 28
REMARK H PARENT 6 8 21 29
REMARK Flexibility Score: inf
ROOT
ATOM      1  C   UNL     1       5.096   2.902  -2.098  1.00  0.00     0.135 C 
ENDROOT
BRANCH   1   2
ATOM      2  C   UNL     1       5.744   3.955  -2.959  1.00  0.00     0.064 A 
ATOM      3  C   UNL     1       6.834   5.968  -3.167  1.00  0.00     0.187 A 
ATOM      4  S   UNL     1       6.650   5.314  -4.765  1.00  0.00    -0.105 S 
ATOM      5  N   UNL     1       6.265   5.041  -2.421  1.00  0.00    -0.224 NA
ATOM      6  C   UNL     1       5.808   3.807  -4.304  1.00  0.00     0.093 A 
BRANCH   3   7
ATOM      7  N   UNL     1       7.428   7.159  -2.776  1.00  0.00    -0.332 N 
ATOM      8  H   UNL     1       7.547   7.370  -1.776  1.00  0.00     0.169 HD
BRANCH   7   9
ATOM      9  C   UNL     1       7.864   8.072  -3.741  1.00  0.00     0.040 A 
ATOM     10  C   UNL     1       9.197  10.864  -6.689  1.00  0.00     0.044 C 
ATOM     11  C   UNL     1       8.727   9.879  -5.649  1.00  0.00    -0.051 A 
ATOM     12  C   UNL     1       9.419   9.750  -4.459  1.00  0.00     0.005 A 
ATOM     13  C   UNL     1       7.605   9.107  -5.888  1.00  0.00     0.005 A 
ATOM     14  C   UNL     1       8.988   8.853  -3.502  1.00  0.00     0.026 A 
ATOM     15  C   UNL     1       7.171   8.204  -4.937  1.00  0.00     0.026 A 
ENDBRANCH   7   9
ENDBRANCH   3   7
ENDBRANCH   1   2
BRANCH   1  16
ATOM     16  S   UNL     1       3.336   3.277  -1.906  1.00  0.00    -0.078 SA
BRANCH  16  17
ATOM     17  C   UNL     1       2.845   1.927  -0.886  1.00  0.00     0.214 A 
ATOM     18  N   UNL     1       1.596   1.685  -0.414  1.00  0.00    -0.187 N 
ATOM     19  N   UNL     1       3.620   0.963  -0.437  1.00  0.00    -0.101 NA
ATOM     20  N   UNL     1       1.709   0.502   0.337  1.00  0.00    -0.039 NA
ATOM     21  N   UNL     1       2.943   0.136   0.274  1.00  0.00    -0.022 NA
BRANCH  18  22
ATOM     22  C   UNL     1       0.440   2.450  -0.632  1.00  0.00     0.070 A 
ATOM     23  C   UNL     1       0.527   3.832  -0.721  1.00  0.00     0.032 A 
ATOM     24  C   UNL     1      -0.793   1.823  -0.759  1.00  0.00     0.032 A 
ATOM     25  C   UNL     1      -0.611   4.583  -0.936  1.00  0.00     0.048 A 
ATOM     26  C   UNL     1      -1.929   2.575  -0.980  1.00  0.00     0.048 A 
ATOM     27  C   UNL     1      -1.842   3.957  -1.063  1.00  0.00     0.115 A 
BRANCH  27  28
ATOM     28  O   UNL     1      -2.963   4.697  -1.275  1.00  0.00    -0.508 OA
ATOM     29  H   UNL     1      -3.576   4.447  -0.539  1.00  0.00     0.293 HD
ENDBRANCH  27  28
ENDBRANCH  18  22
ENDBRANCH  16  17
ENDBRANCH   1  16
TORSDOF 7
