REMARK SMILES Cc1ccc(C)c(NC(=O)Cc2nc(COC(=O)c3cccc4c5c([nH]c34)CCC5)cs2)c1
REMARK SMILES IDX 12 1 13 2 14 3 31 4 32 5 11 6 9 7 8 8 10 10 7 11 1 12 2 13
REMARK SMILES IDX 33 14 3 15 4 16 5 17 6 18 15 19 16 20 17 21 18 22 19 23
REMARK SMILES IDX 27 24 20 25 23 26 26 27 21 28 22 29 24 30 25 31 30 33 28 34
REMARK SMILES IDX 29 35
REMARK H PARENT 8 9 26 32
REMARK Flexibility Score: inf
ROOT
ATOM      1  C   UNL     1       3.332   7.473  -0.304  1.00  0.00     0.102 A 
ATOM      2  N   UNL     1       3.218   8.352   0.665  1.00  0.00    -0.242 NA
ATOM      3  C   UNL     1       2.958   9.618   0.417  1.00  0.00     0.089 A 
ATOM      4  C   UNL     1       2.796  10.003  -0.875  1.00  0.00     0.094 A 
ATOM      5  S   UNL     1       3.047   8.445  -1.714  1.00  0.00    -0.126 S 
ENDROOT
BRANCH   1   6
ATOM      6  C   UNL     1       3.629   5.998  -0.215  1.00  0.00     0.167 C 
BRANCH   6   7
ATOM      7  C   UNL     1       2.336   5.233  -0.093  1.00  0.00     0.231 C 
ATOM      8  N   UNL     1       2.356   3.889   0.001  1.00  0.00    -0.325 N 
ATOM      9  H   UNL     1       3.254   3.390   0.076  1.00  0.00     0.169 HD
ATOM     10  O   UNL     1       1.279   5.827  -0.081  1.00  0.00    -0.274 OA
BRANCH   8  11
ATOM     11  C   UNL     1       1.155   3.170  -0.003  1.00  0.00     0.044 A 
ATOM     12  C   UNL     1      -2.390   3.583  -1.245  1.00  0.00     0.044 C 
ATOM     13  C   UNL     1      -1.161   2.998  -0.600  1.00  0.00    -0.049 A 
ATOM     14  C   UNL     1       0.022   3.710  -0.598  1.00  0.00     0.029 A 
ATOM     15  C   UNL     1      -1.217   1.746  -0.015  1.00  0.00     0.004 A 
ATOM     16  C   UNL     1      -0.093   1.208   0.583  1.00  0.00     0.006 A 
ATOM     17  C   UNL     1       1.094   1.915   0.589  1.00  0.00    -0.027 A 
ATOM     18  C   UNL     1       2.321   1.325   1.235  1.00  0.00     0.046 C 
ENDBRANCH   8  11
ENDBRANCH   6   7
ENDBRANCH   1   6
BRANCH   3  19
ATOM     19  C   UNL     1       2.836  10.616   1.540  1.00  0.00     0.290 C 
BRANCH  19  20
ATOM     20  O   UNL     1       2.541  11.928   0.993  1.00  0.00    -0.455 OA
BRANCH  20  21
ATOM     21  C   UNL     1       2.400  12.940   1.871  1.00  0.00     0.340 C 
ATOM     22  O   UNL     1       2.520  12.732   3.062  1.00  0.00    -0.246 OA
BRANCH  21  23
ATOM     23  C   UNL     1       2.100  14.299   1.387  1.00  0.00     0.084 A 
ATOM     24  C   UNL     1       1.952  15.358   2.299  1.00  0.00     0.061 A 
ATOM     25  C   UNL     1       1.968  14.544   0.021  1.00  0.00     0.018 A 
ATOM     26  C   UNL     1       1.667  16.646   1.815  1.00  0.00     0.004 A 
ATOM     27  N   UNL     1       2.025  15.445   3.664  1.00  0.00    -0.357 N 
ATOM     28  C   UNL     1       1.682  15.817  -0.439  1.00  0.00     0.002 A 
ATOM     29  C   UNL     1       1.533  16.866   0.444  1.00  0.00     0.010 A 
ATOM     30  C   UNL     1       1.577  17.512   2.997  1.00  0.00    -0.019 A 
ATOM     31  C   UNL     1       1.800  16.740   4.070  1.00  0.00     0.019 A 
ATOM     32  H   UNL     1       2.221  14.655   4.295  1.00  0.00     0.166 HD
ATOM     33  C   UNL     1       1.325  18.945   3.413  1.00  0.00     0.038 C 
ATOM     34  C   UNL     1       1.722  17.570   5.337  1.00  0.00     0.054 C 
ATOM     35  C   UNL     1       1.849  19.034   4.864  1.00  0.00     0.011 C 
ENDBRANCH  21  23
ENDBRANCH  20  21
ENDBRANCH  19  20
ENDBRANCH   3  19
TORSDOF 7
