REMARK SMILES Fc1cc(F)cc(-n2ncc3c2CCC[C@@H]3[NH2+]C2CCN(Cc3cccnc3)CC2)c1
REMARK SMILES IDX 21 1 20 2 19 3 18 4 30 5 29 6 22 7 23 8 25 9 26 10 24 11
REMARK SMILES IDX 27 12 28 13 17 14 16 17 11 18 15 19 12 20 10 21 14 22 13 23
REMARK SMILES IDX 8 24 9 25 7 26 31 27 6 28 2 29 4 30 3 31 1 32 5 33
REMARK H PARENT 17 15 17 16
REMARK Flexibility Score: inf
ROOT
ATOM      1  N   UNL     1      -0.628   6.561   5.326  1.00  0.00    -0.299 NA
ATOM      2  C   UNL     1      -1.654   6.819   4.308  1.00  0.00     0.091 C 
ATOM      3  C   UNL     1      -2.082   5.498   3.666  1.00  0.00     0.080 C 
ATOM      4  C   UNL     1      -0.861   4.827   3.029  1.00  0.00     0.185 C 
ATOM      5  C   UNL     1       0.211   4.613   4.101  1.00  0.00     0.080 C 
ATOM      6  C   UNL     1       0.572   5.961   4.730  1.00  0.00     0.091 C 
ENDROOT
BRANCH   1   7
ATOM      7  C   UNL     1      -0.294   7.789   6.060  1.00  0.00     0.121 C 
BRANCH   7   8
ATOM      8  C   UNL     1       0.569   7.446   7.247  1.00  0.00    -0.016 A 
ATOM      9  C   UNL     1       0.824   6.841   9.537  1.00  0.00     0.020 A 
ATOM     10  C   UNL     1       2.192   6.836   9.342  1.00  0.00     0.111 A 
ATOM     11  C   UNL     1      -0.008   7.157   8.474  1.00  0.00     0.008 A 
ATOM     12  N   UNL     1       2.707   7.121   8.162  1.00  0.00    -0.264 NA
ATOM     13  C   UNL     1       1.946   7.421   7.128  1.00  0.00     0.116 A 
ENDBRANCH   7   8
ENDBRANCH   1   7
BRANCH   4  14
ATOM     14  N   UNL     1      -1.254   3.530   2.462  1.00  0.00    -0.337 N 
ATOM     15  H   UNL     1      -1.229   2.814   3.202  1.00  0.00     0.347 HD
ATOM     16  H   UNL     1      -2.214   3.595   2.095  1.00  0.00     0.347 HD
BRANCH  14  17
ATOM     17  C   UNL     1      -0.347   3.135   1.375  1.00  0.00     0.217 C 
ATOM     18  C   UNL     1      -0.801   3.763   0.081  1.00  0.00     0.051 A 
ATOM     19  C   UNL     1      -0.374   1.610   1.208  1.00  0.00     0.071 C 
ATOM     20  C   UNL     1      -0.854   3.106  -1.106  1.00  0.00     0.053 A 
ATOM     21  C   UNL     1      -1.232   5.071  -0.131  1.00  0.00     0.145 A 
ATOM     22  C   UNL     1       0.363   1.224  -0.076  1.00  0.00     0.013 C 
ATOM     23  C   UNL     1      -0.463   1.661  -1.292  1.00  0.00     0.057 C 
ATOM     24  N   UNL     1      -1.305   3.970  -2.034  1.00  0.00    -0.237 N 
ATOM     25  N   UNL     1      -1.536   5.199  -1.400  1.00  0.00    -0.176 NA
BRANCH  24  26
ATOM     26  C   UNL     1      -1.508   3.691  -3.393  1.00  0.00     0.071 A 
ATOM     27  C   UNL     1      -2.086   2.488  -3.777  1.00  0.00     0.067 A 
ATOM     28  C   UNL     1      -1.137   4.619  -4.356  1.00  0.00     0.067 A 
ATOM     29  C   UNL     1      -2.286   2.214  -5.118  1.00  0.00     0.128 A 
ATOM     30  C   UNL     1      -1.334   4.339  -5.697  1.00  0.00     0.128 A 
ATOM     31  C   UNL     1      -1.910   3.139  -6.078  1.00  0.00     0.078 A 
ATOM     32  F   UNL     1      -2.848   1.044  -5.492  1.00  0.00    -0.207 F 
ATOM     33  F   UNL     1      -0.968   5.240  -6.635  1.00  0.00    -0.207 F 
ENDBRANCH  24  26
ENDBRANCH  14  17
ENDBRANCH   4  14
TORSDOF 5
