REMARK SMILES CCc1cccc(CC)c1NC(=O)C1=C(c2ccccc2)NC(=S)N[C@H]1c1cccc(C#N)c1
REMARK SMILES IDX 14 1 15 2 22 3 23 4 24 5 25 6 26 7 12 10 11 11 13 13 10 14
REMARK SMILES IDX 3 15 4 16 7 17 5 18 6 19 2 20 1 21 8 22 9 23 27 24 34 25
REMARK SMILES IDX 28 26 31 27 29 28 30 29 32 30 33 31 16 32 21 33 17 34 20 35
REMARK SMILES IDX 18 36 19 37
REMARK H PARENT 22 8 25 9 11 12
REMARK Flexibility Score: inf
ROOT
ATOM      1  C   UNL     1       2.519   5.951  -3.252  1.00  0.00     0.068 C 
ATOM      2  C   UNL     1       2.178   6.587  -4.410  1.00  0.00     0.059 C 
ATOM      3  N   UNL     1       3.133   6.907  -5.345  1.00  0.00    -0.332 N 
ATOM      4  C   UNL     1       4.433   6.617  -5.203  1.00  0.00     0.171 C 
ATOM      5  S   UNL     1       5.519   7.064  -6.448  1.00  0.00    -0.041 S 
ATOM      6  N   UNL     1       4.916   5.985  -4.116  1.00  0.00    -0.351 N 
ATOM      7  C   UNL     1       3.979   5.601  -3.046  1.00  0.00     0.150 C 
ATOM      8  H   UNL     1       2.834   7.396  -6.200  1.00  0.00     0.169 HD
ATOM      9  H   UNL     1       5.921   5.775  -4.034  1.00  0.00     0.163 HD
ENDROOT
BRANCH   1  10
ATOM     10  C   UNL     1       1.547   5.624  -2.283  1.00  0.00     0.256 C 
ATOM     11  N   UNL     1       1.693   4.518  -1.528  1.00  0.00    -0.322 N 
ATOM     12  H   UNL     1       2.491   3.887  -1.688  1.00  0.00     0.170 HD
ATOM     13  O   UNL     1       0.575   6.342  -2.130  1.00  0.00    -0.269 OA
BRANCH  11  14
ATOM     14  C   UNL     1       0.761   4.226  -0.527  1.00  0.00     0.047 A 
ATOM     15  C   UNL     1       0.120   2.994  -0.510  1.00  0.00    -0.024 A 
ATOM     16  C   UNL     1      -0.799   2.709   0.480  1.00  0.00     0.006 A 
ATOM     17  C   UNL     1       0.476   5.168   0.454  1.00  0.00    -0.024 A 
ATOM     18  C   UNL     1      -1.082   3.649   1.454  1.00  0.00     0.001 A 
ATOM     19  C   UNL     1      -0.449   4.878   1.438  1.00  0.00     0.006 A 
BRANCH  15  20
ATOM     20  C   UNL     1       0.427   1.970  -1.572  1.00  0.00     0.034 C 
ATOM     21  C   UNL     1       1.713   1.226  -1.205  1.00  0.00     0.009 C 
ENDBRANCH  15  20
BRANCH  17  22
ATOM     22  C   UNL     1       1.169   6.505   0.440  1.00  0.00     0.034 C 
ATOM     23  C   UNL     1       0.371   7.503   1.282  1.00  0.00     0.009 C 
ENDBRANCH  17  22
ENDBRANCH  11  14
ENDBRANCH   1  10
BRANCH   7  24
ATOM     24  C   UNL     1       4.438   6.258  -1.770  1.00  0.00    -0.020 A 
ATOM     25  C   UNL     1       4.629   5.497  -0.635  1.00  0.00     0.025 A 
ATOM     26  C   UNL     1       4.662   7.623  -1.737  1.00  0.00     0.006 A 
ATOM     27  C   UNL     1       5.059   6.106   0.545  1.00  0.00     0.052 A 
ATOM     28  C   UNL     1       5.083   8.234  -0.569  1.00  0.00     0.002 A 
ATOM     29  C   UNL     1       5.283   7.484   0.572  1.00  0.00     0.019 A 
BRANCH  27  30
ATOM     30  C   UNL     1       5.265   5.322   1.726  1.00  0.00     0.099 C 
ATOM     31  N   UNL     1       5.428   4.699   2.662  1.00  0.00    -0.192 NA
ENDBRANCH  27  30
ENDBRANCH   7  24
BRANCH   2  32
ATOM     32  C   UNL     1       0.766   6.943  -4.658  1.00  0.00    -0.001 A 
ATOM     33  C   UNL     1       0.434   8.221  -5.114  1.00  0.00     0.010 A 
ATOM     34  C   UNL     1      -0.243   6.001  -4.444  1.00  0.00     0.010 A 
ATOM     35  C   UNL     1      -0.887   8.546  -5.343  1.00  0.00     0.001 A 
ATOM     36  C   UNL     1      -1.560   6.342  -4.672  1.00  0.00     0.001 A 
ATOM     37  C   UNL     1      -1.882   7.610  -5.124  1.00  0.00     0.000 A 
ENDBRANCH   2  32
TORSDOF 7
