REMARK SMILES CCc1c(C)c(C#N)c2nc3ccccc3n2c1N/N=C/c1cc2cc3c(cc2nc1Cl)OCO3
REMARK SMILES IDX 19 1 18 3 3 4 4 5 17 6 6 7 5 8 9 9 16 10 10 11 11 12 15 13
REMARK SMILES IDX 12 14 14 15 13 16 2 17 1 18 7 19 8 20 20 21 21 22 22 23
REMARK SMILES IDX 31 24 23 25 30 26 32 27 24 28 29 29 25 30 28 31 26 32 27 33
REMARK SMILES IDX 35 34 33 35 34 36
REMARK H PARENT 19 2
REMARK Flexibility Score: inf
ROOT
ATOM      1  N   UNL     1       9.160   5.062   0.190  1.00  0.00    -0.262 N 
ATOM      2  H   UNL     1       9.008   4.807  -0.796  1.00  0.00     0.192 HD
ENDROOT
BRANCH   1   3
ATOM      3  C   UNL     1       9.699   6.285   0.507  1.00  0.00     0.136 A 
ATOM      4  C   UNL     1      10.997   6.564   0.139  1.00  0.00    -0.001 A 
ATOM      5  C   UNL     1      11.573   7.791   0.439  1.00  0.00    -0.023 A 
ATOM      6  N   UNL     1       8.938   7.196   1.185  1.00  0.00    -0.276 N 
ATOM      7  C   UNL     1      10.830   8.748   1.129  1.00  0.00     0.099 A 
ATOM      8  C   UNL     1      12.992   8.085   0.025  1.00  0.00     0.046 C 
ATOM      9  C   UNL     1       9.451   8.427   1.515  1.00  0.00     0.157 A 
ATOM     10  C   UNL     1       7.638   7.154   1.661  1.00  0.00     0.075 A 
ATOM     11  N   UNL     1       8.537   9.126   2.162  1.00  0.00    -0.227 NA
ATOM     12  C   UNL     1       7.403   8.394   2.280  1.00  0.00     0.090 A 
ATOM     13  C   UNL     1       6.636   6.195   1.632  1.00  0.00     0.029 A 
ATOM     14  C   UNL     1       6.155   8.646   2.862  1.00  0.00     0.030 A 
ATOM     15  C   UNL     1       5.414   6.465   2.212  1.00  0.00     0.002 A 
ATOM     16  C   UNL     1       5.181   7.689   2.824  1.00  0.00     0.002 A 
BRANCH   4  17
ATOM     17  C   UNL     1      11.800   5.527  -0.602  1.00  0.00     0.036 C 
ATOM     18  C   UNL     1      11.602   5.709  -2.108  1.00  0.00     0.009 C 
ENDBRANCH   4  17
BRANCH   7  19
ATOM     19  C   UNL     1      11.401  10.020   1.456  1.00  0.00     0.103 C 
ATOM     20  N   UNL     1      11.855  11.029   1.715  1.00  0.00    -0.192 NA
ENDBRANCH   7  19
ENDBRANCH   1   3
BRANCH   1  21
ATOM     21  N   UNL     1       8.818   4.163   1.208  1.00  0.00    -0.182 NA
ATOM     22  C   UNL     1       8.400   2.970   0.907  1.00  0.00     0.144 C 
BRANCH  22  23
ATOM     23  C   UNL     1       7.936   2.062   1.971  1.00  0.00     0.033 A 
ATOM     24  C   UNL     1       8.047   2.437   3.323  1.00  0.00     0.138 A 
ATOM     25  C   UNL     1       7.385   0.826   1.647  1.00  0.00     0.023 A 
ATOM     26  N   UNL     1       7.642   1.649   4.287  1.00  0.00    -0.235 NA
ATOM     27  Cl  UNL     1       8.735   3.980   3.722  1.00  0.00    -0.062 Cl
ATOM     28  C   UNL     1       6.959  -0.002   2.699  1.00  0.00     0.005 A 
ATOM     29  C   UNL     1       7.104   0.449   4.036  1.00  0.00     0.076 A 
ATOM     30  C   UNL     1       6.394  -1.264   2.446  1.00  0.00     0.061 A 
ATOM     31  C   UNL     1       6.676  -0.379   5.086  1.00  0.00     0.079 A 
ATOM     32  C   UNL     1       5.990  -2.046   3.488  1.00  0.00     0.166 A 
ATOM     33  C   UNL     1       6.131  -1.601   4.814  1.00  0.00     0.167 A 
ATOM     34  O   UNL     1       5.423  -3.289   3.509  1.00  0.00    -0.454 OA
ATOM     35  O   UNL     1       5.651  -2.571   5.647  1.00  0.00    -0.454 OA
ATOM     36  C   UNL     1       5.599  -3.771   4.854  1.00  0.00     0.468 C 
ENDBRANCH  22  23
ENDBRANCH   1  21
TORSDOF 5
