REMARK SMILES N#C/C(=C\c1cccn1-c1ccc(S(N)(=O)=O)cc1)c1nc2ccccc2[nH]1
REMARK SMILES IDX 10 1 11 2 12 3 13 4 18 5 19 6 9 7 5 8 6 9 8 10 7 11 4 12
REMARK SMILES IDX 3 13 20 14 25 15 26 16 24 17 27 18 23 19 22 20 28 21 21 22
REMARK SMILES IDX 2 24 1 25 14 26 16 27 17 28 15 29
REMARK H PARENT 28 23 15 30 15 31
REMARK Flexibility Score: inf
ROOT
ATOM      1  C   UNL     1       7.240   1.532  -0.298  1.00  0.00     0.046 A 
ATOM      2  C   UNL     1       6.317   1.045   0.619  1.00  0.00     0.028 A 
ATOM      3  C   UNL     1       5.948  -0.285   0.585  1.00  0.00     0.024 A 
ATOM      4  C   UNL     1       6.505  -1.135  -0.354  1.00  0.00     0.082 A 
ATOM      5  C   UNL     1       7.428  -0.655  -1.264  1.00  0.00     0.024 A 
ATOM      6  C   UNL     1       7.797   0.676  -1.239  1.00  0.00     0.028 A 
ENDROOT
BRANCH   1   7
ATOM      7  N   UNL     1       7.613   2.881  -0.270  1.00  0.00    -0.317 N 
ATOM      8  C   UNL     1       6.752   3.957  -0.356  1.00  0.00     0.047 A 
ATOM      9  C   UNL     1       7.521   5.109  -0.295  1.00  0.00     0.028 A 
ATOM     10  C   UNL     1       8.883   3.352  -0.152  1.00  0.00     0.092 A 
ATOM     11  C   UNL     1       8.852   4.708  -0.162  1.00  0.00     0.020 A 
BRANCH   8  12
ATOM     12  C   UNL     1       5.349   3.896  -0.487  1.00  0.00     0.050 C 
ATOM     13  C   UNL     1       4.624   5.052  -0.700  1.00  0.00     0.097 C 
BRANCH  13  14
ATOM     14  C   UNL     1       3.178   4.976  -0.970  1.00  0.00     0.149 A 
ATOM     15  C   UNL     1      -1.261   5.354  -1.831  1.00  0.00     0.002 A 
ATOM     16  C   UNL     1      -0.142   6.146  -1.676  1.00  0.00     0.028 A 
ATOM     17  C   UNL     1      -1.165   3.973  -1.726  1.00  0.00     0.002 A 
ATOM     18  C   UNL     1       1.085   5.558  -1.404  1.00  0.00     0.066 A 
ATOM     19  C   UNL     1       0.035   3.376  -1.460  1.00  0.00     0.030 A 
ATOM     20  C   UNL     1       1.182   4.160  -1.294  1.00  0.00     0.089 A 
ATOM     21  N   UNL     1       2.359   6.052  -1.195  1.00  0.00    -0.337 N 
ATOM     22  N   UNL     1       2.478   3.866  -1.030  1.00  0.00    -0.228 NA
ATOM     23  H   UNL     1       2.641   7.042  -1.207  1.00  0.00     0.168 HD
ENDBRANCH  13  14
BRANCH  13  24
ATOM     24  C   UNL     1       5.278   6.325  -0.660  1.00  0.00     0.103 C 
ATOM     25  N   UNL     1       5.797   7.335  -0.627  1.00  0.00    -0.192 NA
ENDBRANCH  13  24
ENDBRANCH   8  12
ENDBRANCH   1   7
BRANCH   4  26
ATOM     26  S   UNL     1       6.037  -2.834  -0.389  1.00  0.00     0.238 S 
ATOM     27  O   UNL     1       4.752  -2.913   0.214  1.00  0.00    -0.207 OA
ATOM     28  O   UNL     1       6.290  -3.298  -1.708  1.00  0.00    -0.207 OA
BRANCH  26  29
ATOM     29  N   UNL     1       7.078  -3.649   0.608  1.00  0.00    -0.225 NA
ATOM     30  H   UNL     1       6.827  -4.583   0.962  1.00  0.00     0.137 HD
ATOM     31  H   UNL     1       7.977  -3.222   0.874  1.00  0.00     0.137 HD
ENDBRANCH  26  29
ENDBRANCH   4  26
TORSDOF 6
