REMARK SMILES O=C(NCCOc1ccccc1)c1ccc(-c2cc(-c3ccc(Cl)cc3Cl)n[nH]2)cc1
REMARK SMILES IDX 3 1 2 2 1 3 4 5 5 6 6 7 7 8 10 9 11 10 9 11 12 12 8 13 13 14
REMARK SMILES IDX 31 15 14 16 30 17 15 18 16 19 17 20 29 21 18 22 28 23 19 25
REMARK SMILES IDX 20 26 26 27 21 28 25 29 27 30 22 31 23 32 24 33
REMARK H PARENT 3 4 29 24
REMARK Flexibility Score: inf
ROOT
ATOM      1  N   UNL     1       1.143   1.901   0.001  1.00  0.00    -0.349 N 
ATOM      2  C   UNL     1      -0.014   1.212   0.009  1.00  0.00     0.251 C 
ATOM      3  O   UNL     1       0.002  -0.004   0.002  1.00  0.00    -0.269 OA
ATOM      4  H   UNL     1       1.129   2.931   0.007  1.00  0.00     0.163 HD
ENDROOT
BRANCH   1   5
ATOM      5  C   UNL     1       2.422   1.186  -0.015  1.00  0.00     0.157 C 
BRANCH   5   6
ATOM      6  C   UNL     1       3.571   2.196  -0.020  1.00  0.00     0.250 C 
BRANCH   6   7
ATOM      7  O   UNL     1       3.565   2.932   1.205  1.00  0.00    -0.492 OA
BRANCH   7   8
ATOM      8  C   UNL     1       4.529   3.877   1.362  1.00  0.00     0.119 A 
ATOM      9  C   UNL     1       6.491   5.801   1.682  1.00  0.00     0.000 A 
ATOM     10  C   UNL     1       6.440   5.053   0.520  1.00  0.00     0.004 A 
ATOM     11  C   UNL     1       5.562   5.588   2.685  1.00  0.00     0.004 A 
ATOM     12  C   UNL     1       5.465   4.088   0.360  1.00  0.00     0.046 A 
ATOM     13  C   UNL     1       4.582   4.628   2.527  1.00  0.00     0.046 A 
ENDBRANCH   7   8
ENDBRANCH   6   7
ENDBRANCH   5   6
ENDBRANCH   1   5
BRANCH   2  14
ATOM     14  C   UNL     1      -1.303   1.932   0.019  1.00  0.00     0.039 A 
ATOM     15  C   UNL     1      -2.504   1.217   0.021  1.00  0.00     0.014 A 
ATOM     16  C   UNL     1      -1.322   3.330   0.032  1.00  0.00     0.014 A 
ATOM     17  C   UNL     1      -3.700   1.887   0.030  1.00  0.00     0.011 A 
ATOM     18  C   UNL     1      -2.519   3.999   0.036  1.00  0.00     0.011 A 
ATOM     19  C   UNL     1      -3.719   3.284   0.037  1.00  0.00    -0.000 A 
BRANCH  19  20
ATOM     20  C   UNL     1      -5.009   4.005   0.047  1.00  0.00     0.066 A 
ATOM     21  N   UNL     1      -6.250   3.439   0.043  1.00  0.00    -0.277 N 
ATOM     22  C   UNL     1      -5.176   5.361   0.055  1.00  0.00     0.059 A 
ATOM     23  N   UNL     1      -7.196   4.472   0.058  1.00  0.00    -0.175 NA
ATOM     24  H   UNL     1      -6.456   2.430   0.032  1.00  0.00     0.190 HD
ATOM     25  C   UNL     1      -6.556   5.623   0.061  1.00  0.00     0.094 A 
BRANCH  25  26
ATOM     26  C   UNL     1      -7.185   6.967   0.070  1.00  0.00     0.021 A 
ATOM     27  C   UNL     1      -8.573   7.090   0.076  1.00  0.00     0.052 A 
ATOM     28  C   UNL     1      -6.389   8.111   0.079  1.00  0.00     0.013 A 
ATOM     29  C   UNL     1      -9.153   8.343   0.085  1.00  0.00     0.041 A 
ATOM     30  Cl  UNL     1      -9.572   5.669   0.074  1.00  0.00    -0.084 Cl
ATOM     31  C   UNL     1      -6.978   9.359   0.081  1.00  0.00     0.021 A 
ATOM     32  C   UNL     1      -8.358   9.476   0.087  1.00  0.00     0.042 A 
ATOM     33  Cl  UNL     1      -9.093  11.049   0.097  1.00  0.00    -0.084 Cl
ENDBRANCH  25  26
ENDBRANCH  19  20
ENDBRANCH   2  14
TORSDOF 7
