REMARK SMILES COc1cc([C@@H]2CC(c3c([O-])cc(C)oc3=O)=Nc3cc(C(F)(F)F)ccc3S2)ccc1O
REMARK SMILES IDX 29 1 28 2 19 3 20 4 27 5 21 6 26 7 18 8 8 9 9 10 14 11 13 12
REMARK SMILES IDX 15 13 12 14 16 15 10 16 17 17 11 18 7 19 22 21 23 22 24 23
REMARK SMILES IDX 25 24 6 25 5 27 4 28 30 29 3 30 31 31 32 32 2 33 1 34 33 35
REMARK H PARENT 33 36
REMARK Flexibility Score: 90.00
ROOT
ATOM      1  S   UNL     1       2.753   3.953   0.041  1.00  0.00    -0.115 SA
ENDROOT
BRANCH   1   2
ATOM      2  C   UNL     1       1.181   3.184   0.008  1.00  0.00     0.034 A 
ATOM      3  C   UNL     1      -0.029   3.878   0.005  1.00  0.00     0.077 A 
ATOM      4  C   UNL     1      -1.228   3.128   0.021  1.00  0.00     0.042 A 
ATOM      5  C   UNL     1       1.166   1.784   0.001  1.00  0.00     0.018 A 
ATOM      6  C   UNL     1      -1.218   1.756   0.017  1.00  0.00     0.058 A 
ATOM      7  C   UNL     1      -0.013   1.076   0.008  1.00  0.00     0.014 A 
BRANCH   3   8
ATOM      8  N   UNL     1      -0.198   5.200  -0.022  1.00  0.00    -0.251 NA
ATOM      9  C   UNL     1       0.398   6.288  -0.134  1.00  0.00     0.056 C 
BRANCH   9  10
ATOM     10  C   UNL     1      -0.460   7.466  -0.276  1.00  0.00     0.074 A 
ATOM     11  C   UNL     1      -2.954  10.903  -0.607  1.00  0.00     0.088 C 
ATOM     12  C   UNL     1      -2.072   9.686  -0.499  1.00  0.00     0.104 A 
ATOM     13  O   UNL     1      -1.687   9.264   0.712  1.00  0.00    -0.428 OA
ATOM     14  C   UNL     1      -1.688   9.050  -1.625  1.00  0.00     0.034 A 
ATOM     15  C   UNL     1      -0.901   8.184   0.864  1.00  0.00     0.344 A 
ATOM     16  C   UNL     1      -0.860   7.915  -1.545  1.00  0.00    -0.089 A 
ATOM     17  O   UNL     1      -0.567   7.824   1.979  1.00  0.00    -0.246 OA
ATOM     18  O   UNL     1      -0.463   7.269  -2.663  1.00  0.00    -0.872 OA
ENDBRANCH   9  10
BRANCH   9  19
ATOM     19  C   UNL     1       1.861   6.554  -0.144  1.00  0.00     0.076 CG0
ATOM     20  G   UNL     1       2.637   5.489  -0.866  1.00  0.00     0.000 G0
ENDBRANCH   9  19
ENDBRANCH   3   8
BRANCH   6  21
ATOM     21  C   UNL     1      -2.517   0.992   0.029  1.00  0.00     0.416 C 
ATOM     22  F   UNL     1      -2.250  -0.381   0.029  1.00  0.00    -0.166 F 
ATOM     23  F   UNL     1      -3.244   1.326   1.178  1.00  0.00    -0.166 F 
ATOM     24  F   UNL     1      -3.263   1.322  -1.107  1.00  0.00    -0.166 F 
ENDBRANCH   6  21
ENDBRANCH   1   2
BRANCH   1  25
ATOM     25  C   UNL     1       2.637   5.489  -0.866  1.00  0.00     0.088 CG0
ATOM     26  G   UNL     1       1.861   6.554  -0.144  1.00  0.00     0.000 G0
BRANCH  25  27
ATOM     27  C   UNL     1       4.030   6.001  -1.127  1.00  0.00    -0.030 A 
ATOM     28  C   UNL     1       4.496   6.101  -2.425  1.00  0.00     0.055 A 
ATOM     29  C   UNL     1       4.841   6.364  -0.068  1.00  0.00     0.009 A 
ATOM     30  C   UNL     1       5.775   6.576  -2.667  1.00  0.00     0.160 A 
ATOM     31  C   UNL     1       6.120   6.835  -0.303  1.00  0.00     0.050 A 
ATOM     32  C   UNL     1       6.591   6.942  -1.602  1.00  0.00     0.157 A 
BRANCH  30  33
ATOM     33  O   UNL     1       6.232   6.679  -3.944  1.00  0.00    -0.493 OA
ATOM     34  C   UNL     1       5.339   6.286  -4.987  1.00  0.00     0.278 C 
ENDBRANCH  30  33
BRANCH  32  35
ATOM     35  O   UNL     1       7.849   7.404  -1.835  1.00  0.00    -0.504 OA
ATOM     36  H   UNL     1       8.441   6.803  -1.316  1.00  0.00     0.293 HD
ENDBRANCH  32  35
ENDBRANCH  25  27
ENDBRANCH   1  25
TORSDOF 5
