REMARK SMILES CN(Cc1ccccc1)c1nc(-c2ccccc2)ccc1C(=O)N1CCC(C(N)=O)([NH+]2CCCCC2)CC1
REMARK SMILES IDX 10 1 21 2 20 3 19 4 12 5 11 6 2 7 1 8 3 9 4 10 9 11 5 12
REMARK SMILES IDX 8 13 6 14 7 15 22 16 23 17 24 18 38 19 25 20 37 21 26 22
REMARK SMILES IDX 27 23 28 24 30 25 29 26 31 29 36 30 32 31 35 33 33 34 34 35
REMARK SMILES IDX 13 36 18 37 14 38 17 39 15 40 16 41
REMARK H PARENT 29 27 29 28 31 32
REMARK Flexibility Score: inf
ROOT
ATOM      1  C   UNL     1      -6.064  -3.289   3.086  1.00  0.00     0.142 A 
ATOM      2  C   UNL     1      -5.206  -2.442   2.362  1.00  0.00     0.082 A 
ATOM      3  C   UNL     1      -5.272  -1.060   2.582  1.00  0.00     0.020 A 
ATOM      4  C   UNL     1      -6.178  -0.584   3.510  1.00  0.00     0.030 A 
ATOM      5  C   UNL     1      -6.994  -1.484   4.194  1.00  0.00     0.073 A 
ATOM      6  N   UNL     1      -6.912  -2.789   3.969  1.00  0.00    -0.230 NA
ENDROOT
BRANCH   1   7
ATOM      7  N   UNL     1      -6.017  -4.655   2.876  1.00  0.00    -0.355 N 
ATOM      8  C   UNL     1      -7.240  -5.129   2.214  1.00  0.00     0.145 C 
BRANCH   7   9
ATOM      9  C   UNL     1      -5.789  -5.373   4.137  1.00  0.00     0.153 C 
BRANCH   9  10
ATOM     10  C   UNL     1      -5.500  -6.823   3.845  1.00  0.00    -0.029 A 
ATOM     11  C   UNL     1      -4.198  -7.240   3.640  1.00  0.00     0.005 A 
ATOM     12  C   UNL     1      -6.536  -7.737   3.786  1.00  0.00     0.005 A 
ATOM     13  C   UNL     1      -3.933  -8.570   3.372  1.00  0.00     0.000 A 
ATOM     14  C   UNL     1      -6.271  -9.065   3.513  1.00  0.00     0.000 A 
ATOM     15  C   UNL     1      -4.969  -9.483   3.308  1.00  0.00     0.000 A 
ENDBRANCH   9  10
ENDBRANCH   7   9
ENDBRANCH   1   7
BRANCH   2  16
ATOM     16  C   UNL     1      -4.256  -2.999   1.383  1.00  0.00     0.257 C 
ATOM     17  O   UNL     1      -4.654  -3.734   0.500  1.00  0.00    -0.269 OA
ATOM     18  N   UNL     1      -2.946  -2.693   1.467  1.00  0.00    -0.338 N 
ATOM     19  C   UNL     1      -2.430  -1.913   2.599  1.00  0.00     0.127 C 
ATOM     20  C   UNL     1      -2.007  -3.135   0.427  1.00  0.00     0.127 C 
ATOM     21  C   UNL     1      -1.272  -2.683   3.242  1.00  0.00     0.101 C 
ATOM     22  C   UNL     1      -0.853  -3.891   1.093  1.00  0.00     0.101 C 
ATOM     23  C   UNL     1      -0.225  -3.007   2.173  1.00  0.00     0.180 C 
BRANCH  23  24
ATOM     24  C   UNL     1       0.268  -1.727   1.549  1.00  0.00     0.278 C 
ATOM     25  O   UNL     1      -0.396  -0.716   1.634  1.00  0.00    -0.268 OA
ATOM     26  N   UNL     1       1.447  -1.706   0.897  1.00  0.00    -0.364 N 
ATOM     27  H   UNL     1       2.011  -2.564   0.825  1.00  0.00     0.159 HD
ATOM     28  H   UNL     1       1.784  -0.831   0.470  1.00  0.00     0.159 HD
ENDBRANCH  23  24
BRANCH  23  29
ATOM     29  N   UNL     1       0.903  -3.716   2.792  1.00  0.00    -0.322 N 
ATOM     30  C   UNL     1       0.457  -4.965   3.422  1.00  0.00     0.263 C 
ATOM     31  C   UNL     1       1.601  -2.855   3.754  1.00  0.00     0.263 C 
ATOM     32  H   UNL     1       1.571  -3.961   2.047  1.00  0.00     0.349 HD
ATOM     33  C   UNL     1       1.673  -5.746   3.927  1.00  0.00     0.062 C 
ATOM     34  C   UNL     1       2.851  -3.573   4.269  1.00  0.00     0.062 C 
ATOM     35  C   UNL     1       2.440  -4.888   4.936  1.00  0.00     0.012 C 
ENDBRANCH  23  29
ENDBRANCH   2  16
BRANCH   5  36
ATOM     36  C   UNL     1      -7.967  -0.975   5.190  1.00  0.00     0.000 A 
ATOM     37  C   UNL     1      -8.789  -1.863   5.883  1.00  0.00     0.010 A 
ATOM     38  C   UNL     1      -8.059   0.393   5.442  1.00  0.00     0.010 A 
ATOM     39  C   UNL     1      -9.693  -1.383   6.809  1.00  0.00     0.001 A 
ATOM     40  C   UNL     1      -8.970   0.862   6.367  1.00  0.00     0.001 A 
ATOM     41  C   UNL     1      -9.783  -0.024   7.051  1.00  0.00     0.000 A 
ENDBRANCH   5  36
TORSDOF 7
