REMARK SMILES CC(C)[C@@H](Sc1nnc(-c2ccccc2Br)n1N)C(=O)Nc1cccc(F)c1
REMARK SMILES IDX 4 1 2 2 1 3 3 4 19 5 20 6 21 7 22 9 28 10 23 11 26 12 24 13
REMARK SMILES IDX 25 14 27 15 5 16 6 17 17 18 7 19 9 20 8 21 18 22 10 25 15 26
REMARK SMILES IDX 11 27 14 28 16 29 12 30 13 31
REMARK H PARENT 21 8 18 23 18 24
REMARK Flexibility Score: inf
ROOT
ATOM      1  C   UNL     1       6.462   6.742  -0.021  1.00  0.00     0.147 C 
ENDROOT
BRANCH   1   2
ATOM      2  C   UNL     1       6.532   5.920   1.268  1.00  0.00     0.006 C 
ATOM      3  C   UNL     1       5.480   4.811   1.223  1.00  0.00     0.009 C 
ATOM      4  C   UNL     1       7.924   5.298   1.401  1.00  0.00     0.009 C 
ENDBRANCH   1   2
BRANCH   1   5
ATOM      5  C   UNL     1       7.497   7.836   0.024  1.00  0.00     0.238 C 
ATOM      6  O   UNL     1       7.191   8.946   0.406  1.00  0.00    -0.273 OA
ATOM      7  N   UNL     1       8.764   7.582  -0.360  1.00  0.00    -0.325 N 
ATOM      8  H   UNL     1       9.007   6.664  -0.759  1.00  0.00     0.169 HD
BRANCH   7   9
ATOM      9  C   UNL     1       9.750   8.564  -0.215  1.00  0.00     0.044 A 
ATOM     10  C   UNL     1      10.789   8.647  -1.131  1.00  0.00     0.065 A 
ATOM     11  C   UNL     1       9.693   9.456   0.849  1.00  0.00     0.026 A 
ATOM     12  C   UNL     1      11.759   9.623  -0.988  1.00  0.00     0.125 A 
ATOM     13  C   UNL     1      10.666  10.425   0.990  1.00  0.00     0.005 A 
ATOM     14  C   UNL     1      11.698  10.510   0.074  1.00  0.00     0.039 A 
ATOM     15  F   UNL     1      12.768   9.708  -1.882  1.00  0.00    -0.207 F 
ENDBRANCH   7   9
ENDBRANCH   1   5
BRANCH   1  16
ATOM     16  S   UNL     1       4.815   7.475  -0.180  1.00  0.00    -0.071 SA
BRANCH  16  17
ATOM     17  C   UNL     1       4.931   8.136  -1.809  1.00  0.00     0.210 A 
ATOM     18  N   UNL     1       3.994   8.905  -2.440  1.00  0.00    -0.217 N 
ATOM     19  N   UNL     1       5.937   7.987  -2.642  1.00  0.00    -0.121 NA
ATOM     20  C   UNL     1       4.516   9.179  -3.683  1.00  0.00     0.184 A 
ATOM     21  N   UNL     1       5.692   8.600  -3.744  1.00  0.00    -0.127 NA
BRANCH  18  22
ATOM     22  N   UNL     1       2.790   9.314  -1.941  1.00  0.00    -0.335 N 
ATOM     23  H   UNL     1       2.587   8.996  -0.983  1.00  0.00     0.178 HD
ATOM     24  H   UNL     1       2.122   9.895  -2.467  1.00  0.00     0.178 HD
ENDBRANCH  18  22
BRANCH  20  25
ATOM     25  C   UNL     1       3.874   9.980  -4.747  1.00  0.00     0.035 A 
ATOM     26  C   UNL     1       3.843   9.505  -6.060  1.00  0.00     0.029 A 
ATOM     27  C   UNL     1       3.297  11.214  -4.445  1.00  0.00     0.013 A 
ATOM     28  C   UNL     1       3.242  10.259  -7.049  1.00  0.00     0.016 A 
ATOM     29  Br  UNL     1       4.623   7.835  -6.483  1.00  0.00    -0.050 Br
ATOM     30  C   UNL     1       2.700  11.957  -5.442  1.00  0.00     0.001 A 
ATOM     31  C   UNL     1       2.668  11.479  -6.740  1.00  0.00     0.001 A 
ENDBRANCH  20  25
ENDBRANCH  16  17
ENDBRANCH   1  16
TORSDOF 7
