REMARK SMILES COc1cc(/C=N/Nc2nc3ccccc3[nH]2)cc(Br)c1OCc1cccc2ccccc12
REMARK SMILES IDX 3 1 4 2 5 3 18 4 19 5 21 6 20 7 2 8 1 9 22 10 23 11 24 12
REMARK SMILES IDX 33 13 25 14 28 15 32 16 26 17 27 18 29 19 31 20 30 21 6 22
REMARK SMILES IDX 7 23 8 24 9 26 10 27 17 28 11 29 16 30 12 32 15 33 13 34
REMARK SMILES IDX 14 35
REMARK H PARENT 8 25 17 31
REMARK Flexibility Score: inf
ROOT
ATOM      1  C   UNL     1      -5.587   3.548   1.282  1.00  0.00     0.162 A 
ATOM      2  C   UNL     1      -6.882   4.034   1.299  1.00  0.00     0.060 A 
ATOM      3  C   UNL     1      -7.547   4.283   0.096  1.00  0.00    -0.000 A 
ATOM      4  C   UNL     1      -6.899   4.044  -1.119  1.00  0.00     0.029 A 
ATOM      5  C   UNL     1      -5.606   3.564  -1.128  1.00  0.00     0.064 A 
ATOM      6  C   UNL     1      -4.946   3.317   0.067  1.00  0.00     0.175 A 
ATOM      7  Br  UNL     1      -4.731   3.241  -2.773  1.00  0.00    -0.047 Br
ENDROOT
BRANCH   1   8
ATOM      8  O   UNL     1      -4.939   3.299   2.451  1.00  0.00    -0.493 OA
ATOM      9  C   UNL     1      -5.657   3.559   3.659  1.00  0.00     0.278 C 
ENDBRANCH   1   8
BRANCH   6  10
ATOM     10  O   UNL     1      -3.671   2.843   0.053  1.00  0.00    -0.484 OA
BRANCH  10  11
ATOM     11  C   UNL     1      -2.620   3.811   0.048  1.00  0.00     0.266 C 
BRANCH  11  12
ATOM     12  C   UNL     1      -1.288   3.106   0.032  1.00  0.00    -0.003 A 
ATOM     13  C   UNL     1      -0.095   3.848   0.024  1.00  0.00    -0.012 A 
ATOM     14  C   UNL     1      -1.234   1.746   0.017  1.00  0.00     0.008 A 
ATOM     15  C   UNL     1       1.147   3.167   0.008  1.00  0.00    -0.018 A 
ATOM     16  C   UNL     1      -0.111   5.254   0.031  1.00  0.00     0.009 A 
ATOM     17  C   UNL     1      -0.013   1.076   0.008  1.00  0.00     0.001 A 
ATOM     18  C   UNL     1       1.163   1.762   0.000  1.00  0.00     0.009 A 
ATOM     19  C   UNL     1       2.340   3.910   0.000  1.00  0.00     0.009 A 
ATOM     20  C   UNL     1       1.064   5.940   0.023  1.00  0.00     0.001 A 
ATOM     21  C   UNL     1       2.287   5.270   0.008  1.00  0.00     0.001 A 
ENDBRANCH  11  12
ENDBRANCH  10  11
ENDBRANCH   6  10
BRANCH   3  22
ATOM     22  C   UNL     1      -8.929   4.797   0.108  1.00  0.00     0.141 C 
ATOM     23  N   UNL     1      -9.545   5.028  -1.011  1.00  0.00    -0.181 NA
BRANCH  23  24
ATOM     24  N   UNL     1     -10.858   5.516  -0.999  1.00  0.00    -0.247 N 
ATOM     25  H   UNL     1     -11.335   5.692  -0.102  1.00  0.00     0.193 HD
BRANCH  24  26
ATOM     26  C   UNL     1     -11.513   5.762  -2.187  1.00  0.00     0.222 A 
ATOM     27  N   UNL     1     -11.003   5.580  -3.380  1.00  0.00    -0.212 NA
ATOM     28  N   UNL     1     -12.790   6.237  -2.297  1.00  0.00    -0.323 N 
ATOM     29  C   UNL     1     -11.918   5.918  -4.325  1.00  0.00     0.091 A 
ATOM     30  C   UNL     1     -13.073   6.346  -3.648  1.00  0.00     0.067 A 
ATOM     31  H   UNL     1     -13.424   6.471  -1.519  1.00  0.00     0.170 HD
ATOM     32  C   UNL     1     -11.901   5.916  -5.722  1.00  0.00     0.030 A 
ATOM     33  C   UNL     1     -14.183   6.761  -4.367  1.00  0.00     0.028 A 
ATOM     34  C   UNL     1     -13.013   6.332  -6.420  1.00  0.00     0.002 A 
ATOM     35  C   UNL     1     -14.150   6.753  -5.747  1.00  0.00     0.002 A 
ENDBRANCH  24  26
ENDBRANCH  23  24
ENDBRANCH   3  22
TORSDOF 7
