REMARK SMILES O=C(NCCCN(Cc1ccccc1)C(=O)C1(c2ccccc2)CCCC1)c1nc(O)c2ccccc2n1
REMARK SMILES IDX 6 1 7 2 8 3 9 4 12 5 13 6 11 7 14 8 10 9 15 10 16 11 17 12
REMARK SMILES IDX 27 13 24 14 26 15 25 16 18 17 23 18 19 19 22 20 20 21 21 22
REMARK SMILES IDX 5 23 4 24 3 25 2 26 1 28 28 29 38 30 29 31 37 32 30 33 32 34
REMARK SMILES IDX 36 35 33 36 35 37 34 38 31 39
REMARK H PARENT 3 27 31 40
REMARK Flexibility Score: inf
ROOT
ATOM      1  C   UNL     1       5.629   8.692  -0.019  1.00  0.00     0.121 C 
ENDROOT
BRANCH   1   2
ATOM      2  N   UNL     1       5.153   9.971  -0.553  1.00  0.00    -0.338 N 
BRANCH   2   3
ATOM      3  C   UNL     1       4.946  10.131  -1.995  1.00  0.00     0.155 C 
BRANCH   3   4
ATOM      4  C   UNL     1       3.531   9.746  -2.345  1.00  0.00    -0.029 A 
ATOM      5  C   UNL     1       0.936   9.041  -2.986  1.00  0.00     0.000 A 
ATOM      6  C   UNL     1       1.954   8.113  -3.105  1.00  0.00     0.000 A 
ATOM      7  C   UNL     1       1.216  10.321  -2.548  1.00  0.00     0.000 A 
ATOM      8  C   UNL     1       3.253   8.467  -2.789  1.00  0.00     0.005 A 
ATOM      9  C   UNL     1       2.514  10.674  -2.227  1.00  0.00     0.005 A 
ENDBRANCH   3   4
ENDBRANCH   2   3
BRANCH   2  10
ATOM     10  C   UNL     1       4.906  11.000   0.281  1.00  0.00     0.233 C 
ATOM     11  O   UNL     1       4.407  12.020  -0.145  1.00  0.00    -0.274 OA
BRANCH  10  12
ATOM     12  C   UNL     1       5.250  10.883   1.744  1.00  0.00     0.074 C 
ATOM     13  C   UNL     1       4.894  12.193   2.477  1.00  0.00     0.022 C 
ATOM     14  C   UNL     1       4.410   9.771   2.396  1.00  0.00     0.022 C 
ATOM     15  C   UNL     1       3.486  11.928   3.065  1.00  0.00     0.001 C 
ATOM     16  C   UNL     1       3.572  10.445   3.502  1.00  0.00     0.001 C 
BRANCH  12  17
ATOM     17  C   UNL     1       6.718  10.584   1.906  1.00  0.00    -0.032 A 
ATOM     18  C   UNL     1       7.556  10.616   0.807  1.00  0.00     0.005 A 
ATOM     19  C   UNL     1       7.229  10.283   3.155  1.00  0.00     0.005 A 
ATOM     20  C   UNL     1       8.903  10.342   0.956  1.00  0.00     0.000 A 
ATOM     21  C   UNL     1       8.574  10.003   3.303  1.00  0.00     0.000 A 
ATOM     22  C   UNL     1       9.412  10.035   2.204  1.00  0.00     0.000 A 
ENDBRANCH  12  17
ENDBRANCH  10  12
ENDBRANCH   2  10
ENDBRANCH   1   2
BRANCH   1  23
ATOM     23  C   UNL     1       4.454   7.720   0.098  1.00  0.00     0.043 C 
BRANCH  23  24
ATOM     24  C   UNL     1       4.961   6.364   0.592  1.00  0.00     0.118 C 
BRANCH  24  25
ATOM     25  N   UNL     1       3.836   5.432   0.704  1.00  0.00    -0.349 N 
ATOM     26  C   UNL     1       4.046   4.169   1.124  1.00  0.00     0.289 C 
ATOM     27  H   UNL     1       2.885   5.743   0.462  1.00  0.00     0.163 HD
ATOM     28  O   UNL     1       5.169   3.803   1.410  1.00  0.00    -0.266 OA
BRANCH  26  29
ATOM     29  C   UNL     1       2.907   3.225   1.238  1.00  0.00     0.222 A 
ATOM     30  N   UNL     1       1.716   3.651   0.923  1.00  0.00    -0.223 NA
ATOM     31  N   UNL     1       3.157   1.950   1.668  1.00  0.00    -0.188 NA
ATOM     32  C   UNL     1       0.634   2.852   1.000  1.00  0.00     0.078 A 
ATOM     33  C   UNL     1       2.147   1.057   1.785  1.00  0.00     0.222 A 
ATOM     34  C   UNL     1       0.794   1.514   1.429  1.00  0.00     0.062 A 
ATOM     35  C   UNL     1      -0.642   3.314   0.661  1.00  0.00     0.029 A 
ATOM     36  C   UNL     1      -0.313   0.675   1.522  1.00  0.00     0.016 A 
ATOM     37  C   UNL     1      -1.722   2.465   0.755  1.00  0.00     0.002 A 
ATOM     38  C   UNL     1      -1.561   1.154   1.182  1.00  0.00     0.001 A 
BRANCH  33  39
ATOM     39  O   UNL     1       2.350  -0.082   2.164  1.00  0.00    -0.493 OA
ATOM     40  H   UNL     1       2.799   0.030   3.040  1.00  0.00     0.295 HD
ENDBRANCH  33  39
ENDBRANCH  26  29
ENDBRANCH  24  25
ENDBRANCH  23  24
ENDBRANCH   1  23
TORSDOF 11
