REMARK SMILES Cc1sc2ncnc(SCC(=O)N[C@H](Cc3ccccc3)c3nc4ccccc4[nH]3)c2c1C
REMARK SMILES IDX 11 1 12 2 13 3 10 5 9 6 8 7 33 8 32 9 31 10 2 11 4 12 3 13
REMARK SMILES IDX 1 14 5 15 7 16 6 17 14 18 15 19 16 20 21 21 17 22 20 23
REMARK SMILES IDX 18 24 19 25 22 26 23 27 30 28 24 29 29 30 25 32 28 33 26 34
REMARK SMILES IDX 27 35
REMARK H PARENT 13 4 30 31
REMARK Flexibility Score: inf
ROOT
ATOM      1  C   UNL     1      -0.984   0.769   3.614  1.00  0.00     0.231 C 
ATOM      2  O   UNL     1      -0.117   1.599   3.439  1.00  0.00    -0.274 OA
ATOM      3  N   UNL     1      -0.764  -0.516   3.275  1.00  0.00    -0.345 N 
ATOM      4  H   UNL     1      -1.500  -1.221   3.423  1.00  0.00     0.164 HD
ENDROOT
BRANCH   1   5
ATOM      5  C   UNL     1      -2.307   1.175   4.211  1.00  0.00     0.176 C 
BRANCH   5   6
ATOM      6  S   UNL     1      -2.293   2.952   4.556  1.00  0.00    -0.096 SA
BRANCH   6   7
ATOM      7  C   UNL     1      -3.911   3.146   5.226  1.00  0.00     0.109 A 
ATOM      8  C   UNL     1      -2.274   5.813   5.112  1.00  0.00     0.046 C 
ATOM      9  C   UNL     1      -3.681   5.706   5.640  1.00  0.00    -0.025 A 
ATOM     10  C   UNL     1      -4.362   4.423   5.660  1.00  0.00     0.047 A 
ATOM     11  C   UNL     1      -4.317   6.793   6.101  1.00  0.00     0.007 A 
ATOM     12  C   UNL     1      -5.678   4.458   6.173  1.00  0.00     0.128 A 
ATOM     13  S   UNL     1      -5.910   6.163   6.599  1.00  0.00    -0.120 S 
ATOM     14  C   UNL     1      -3.807   8.209   6.180  1.00  0.00     0.057 C 
ATOM     15  N   UNL     1      -6.416   3.368   6.247  1.00  0.00    -0.225 NA
ATOM     16  N   UNL     1      -4.720   2.104   5.336  1.00  0.00    -0.229 NA
ATOM     17  C   UNL     1      -5.939   2.209   5.833  1.00  0.00     0.224 A 
ENDBRANCH   6   7
ENDBRANCH   5   6
ENDBRANCH   1   5
BRANCH   3  18
ATOM     18  C   UNL     1       0.522  -0.911   2.695  1.00  0.00     0.153 C 
BRANCH  18  19
ATOM     19  C   UNL     1       0.496  -0.670   1.184  1.00  0.00     0.068 C 
BRANCH  19  20
ATOM     20  C   UNL     1       0.373   0.807   0.913  1.00  0.00    -0.046 A 
ATOM     21  C   UNL     1       1.510   1.583   0.784  1.00  0.00     0.004 A 
ATOM     22  C   UNL     1      -0.876   1.385   0.789  1.00  0.00     0.004 A 
ATOM     23  C   UNL     1       1.397   2.938   0.535  1.00  0.00     0.000 A 
ATOM     24  C   UNL     1      -0.989   2.741   0.545  1.00  0.00     0.000 A 
ATOM     25  C   UNL     1       0.148   3.518   0.416  1.00  0.00     0.000 A 
ENDBRANCH  19  20
ENDBRANCH  18  19
BRANCH  18  26
ATOM     26  C   UNL     1       0.768  -2.373   2.966  1.00  0.00     0.130 A 
ATOM     27  N   UNL     1       0.053  -3.350   2.490  1.00  0.00    -0.231 NA
ATOM     28  N   UNL     1       1.774  -2.864   3.740  1.00  0.00    -0.340 N 
ATOM     29  C   UNL     1       0.549  -4.535   2.930  1.00  0.00     0.089 A 
ATOM     30  C   UNL     1       1.658  -4.239   3.741  1.00  0.00     0.066 A 
ATOM     31  H   UNL     1       2.490  -2.311   4.234  1.00  0.00     0.168 HD
ATOM     32  C   UNL     1       0.178  -5.868   2.732  1.00  0.00     0.030 A 
ATOM     33  C   UNL     1       2.373  -5.270   4.336  1.00  0.00     0.028 A 
ATOM     34  C   UNL     1       0.893  -6.869   3.326  1.00  0.00     0.002 A 
ATOM     35  C   UNL     1       1.988  -6.577   4.127  1.00  0.00     0.002 A 
ENDBRANCH  18  26
ENDBRANCH   3  18
TORSDOF 7
