REMARK SMILES O=C1[C@@H]([NH2+]Cc2c(O)ccc3ccccc23)CON1C(c1ccccc1)(c1ccccc1)c1ccccc1
REMARK SMILES IDX 4 1 3 4 19 5 18 6 2 7 17 8 1 9 20 10 21 11 24 12 25 13 23 14
REMARK SMILES IDX 26 15 22 16 27 17 32 18 28 19 31 20 29 21 30 22 33 23 38 24
REMARK SMILES IDX 34 25 37 26 35 27 36 28 5 29 6 30 7 31 16 32 9 33 11 34
REMARK SMILES IDX 15 35 10 36 12 37 14 38 13 39 8 40
REMARK H PARENT 4 2 4 3 8 41
REMARK Flexibility Score: inf
ROOT
ATOM      1  N   UNL     1      -3.120   0.292  -1.105  1.00  0.00    -0.330 N 
ATOM      2  H   UNL     1      -3.107  -0.527  -1.729  1.00  0.00     0.347 HD
ATOM      3  H   UNL     1      -2.482   1.010  -1.477  1.00  0.00     0.347 HD
ENDROOT
BRANCH   1   4
ATOM      4  C   UNL     1      -4.489   0.838  -1.043  1.00  0.00     0.304 C 
ATOM      5  N   UNL     1      -5.962  -0.131  -2.540  1.00  0.00    -0.196 N 
ATOM      6  O   UNL     1      -5.323   0.933  -3.218  1.00  0.00    -0.262 OA
ATOM      7  C   UNL     1      -5.514  -0.257  -1.275  1.00  0.00     0.308 C 
ATOM      8  C   UNL     1      -4.740   1.801  -2.226  1.00  0.00     0.269 C 
ATOM      9  O   UNL     1      -5.866  -1.092  -0.470  1.00  0.00    -0.265 OA
BRANCH   5  10
ATOM     10  C   UNL     1      -6.985  -0.992  -3.140  1.00  0.00     0.145 C 
BRANCH  10  11
ATOM     11  C   UNL     1      -7.252  -0.544  -4.554  1.00  0.00    -0.011 A 
ATOM     12  C   UNL     1      -7.742   0.277  -7.148  1.00  0.00     0.000 A 
ATOM     13  C   UNL     1      -6.831  -0.733  -6.903  1.00  0.00     0.000 A 
ATOM     14  C   UNL     1      -8.407   0.878  -6.096  1.00  0.00     0.000 A 
ATOM     15  C   UNL     1      -6.583  -1.141  -5.606  1.00  0.00     0.007 A 
ATOM     16  C   UNL     1      -8.162   0.468  -4.798  1.00  0.00     0.007 A 
ENDBRANCH  10  11
BRANCH  10  17
ATOM     17  C   UNL     1      -6.500  -2.418  -3.148  1.00  0.00    -0.011 A 
ATOM     18  C   UNL     1      -7.268  -3.406  -3.736  1.00  0.00     0.007 A 
ATOM     19  C   UNL     1      -5.284  -2.738  -2.572  1.00  0.00     0.007 A 
ATOM     20  C   UNL     1      -6.822  -4.715  -3.743  1.00  0.00     0.000 A 
ATOM     21  C   UNL     1      -4.841  -4.048  -2.576  1.00  0.00     0.000 A 
ATOM     22  C   UNL     1      -5.609  -5.036  -3.163  1.00  0.00     0.000 A 
ENDBRANCH  10  17
BRANCH  10  23
ATOM     23  C   UNL     1      -8.255  -0.898  -2.335  1.00  0.00    -0.011 A 
ATOM     24  C   UNL     1      -9.372  -1.616  -2.719  1.00  0.00     0.007 A 
ATOM     25  C   UNL     1      -8.303  -0.097  -1.209  1.00  0.00     0.007 A 
ATOM     26  C   UNL     1     -10.537  -1.530  -1.981  1.00  0.00     0.000 A 
ATOM     27  C   UNL     1      -9.469  -0.008  -0.473  1.00  0.00     0.000 A 
ATOM     28  C   UNL     1     -10.586  -0.726  -0.858  1.00  0.00     0.000 A 
ENDBRANCH  10  23
ENDBRANCH   5  10
ENDBRANCH   1   4
BRANCH   1  29
ATOM     29  C   UNL     1      -2.669  -0.112   0.240  1.00  0.00     0.302 C 
BRANCH  29  30
ATOM     30  C   UNL     1      -1.270  -0.664   0.146  1.00  0.00     0.056 A 
ATOM     31  C   UNL     1      -1.071  -1.997  -0.074  1.00  0.00     0.125 A 
ATOM     32  C   UNL     1      -0.163   0.189   0.285  1.00  0.00    -0.006 A 
ATOM     33  C   UNL     1       0.221  -2.525  -0.165  1.00  0.00     0.047 A 
ATOM     34  C   UNL     1       1.146  -0.348   0.194  1.00  0.00    -0.018 A 
ATOM     35  C   UNL     1      -0.328   1.566   0.513  1.00  0.00     0.009 A 
ATOM     36  C   UNL     1       1.313  -1.725  -0.035  1.00  0.00     0.012 A 
ATOM     37  C   UNL     1       2.252   0.507   0.332  1.00  0.00     0.009 A 
ATOM     38  C   UNL     1       0.767   2.364   0.642  1.00  0.00     0.001 A 
ATOM     39  C   UNL     1       2.054   1.835   0.552  1.00  0.00     0.001 A 
BRANCH  31  40
ATOM     40  O   UNL     1      -2.143  -2.822  -0.208  1.00  0.00    -0.507 OA
ATOM     41  H   UNL     1      -2.673  -2.439  -0.952  1.00  0.00     0.293 HD
ENDBRANCH  31  40
ENDBRANCH  29  30
ENDBRANCH   1  29
TORSDOF 8
