REMARK SMILES CC(C)[C@H](NC(=O)[C@@H]1Cc2c([nH]c3ccccc23)[C@H]2c3ccccc3C(=O)N21)C(=O)NCc1ccc(F)cc1
REMARK SMILES IDX 29 1 30 2 31 3 4 5 2 6 1 7 3 8 5 9 6 10 7 12 8 13 28 14 9 15
REMARK SMILES IDX 19 16 26 17 10 18 11 19 20 20 27 21 25 22 18 23 12 24 21 25
REMARK SMILES IDX 24 26 13 27 17 28 22 30 23 31 14 32 16 33 15 34 32 35 33 36
REMARK SMILES IDX 39 37 34 38 38 39 35 40 36 41 37 42
REMARK H PARENT 31 4 5 11 12 29
REMARK Flexibility Score: inf
ROOT
ATOM      1  C   UNL     1      -2.149   1.498   1.280  1.00  0.00     0.243 C 
ATOM      2  O   UNL     1      -2.527   0.790   2.189  1.00  0.00    -0.273 OA
ATOM      3  N   UNL     1      -2.992   1.817   0.279  1.00  0.00    -0.350 N 
ATOM      4  H   UNL     1      -2.671   2.418  -0.494  1.00  0.00     0.163 HD
ENDROOT
BRANCH   1   5
ATOM      5  C   UNL     1      -0.735   2.019   1.269  1.00  0.00     0.174 C 
BRANCH   5   6
ATOM      6  C   UNL     1      -0.019   1.526   0.010  1.00  0.00     0.015 C 
ATOM      7  C   UNL     1       0.002  -0.004   0.002  1.00  0.00     0.010 C 
ATOM      8  C   UNL     1       1.417   2.055  -0.000  1.00  0.00     0.010 C 
ENDBRANCH   5   6
BRANCH   5   9
ATOM      9  N   UNL     1      -0.026   1.534   2.456  1.00  0.00    -0.342 N 
ATOM     10  C   UNL     1       1.026   2.222   2.941  1.00  0.00     0.243 C 
ATOM     11  H   UNL     1      -0.332   0.667   2.920  1.00  0.00     0.164 HD
ATOM     12  O   UNL     1       1.386   3.244   2.395  1.00  0.00    -0.273 OA
BRANCH  10  13
ATOM     13  C   UNL     1       1.755   1.723   4.162  1.00  0.00     0.180 C 
ATOM     14  N   UNL     1       2.842   2.647   4.504  1.00  0.00    -0.314 N 
ATOM     15  C   UNL     1       0.791   1.667   5.356  1.00  0.00     0.073 C 
ATOM     16  C   UNL     1       2.598   4.079   4.796  1.00  0.00     0.164 C 
ATOM     17  C   UNL     1       4.149   2.399   4.652  1.00  0.00     0.255 C 
ATOM     18  C   UNL     1       0.623   3.039   5.957  1.00  0.00    -0.014 A 
ATOM     19  C   UNL     1       1.413   4.114   5.731  1.00  0.00     0.047 A 
ATOM     20  C   UNL     1       3.849   4.576   5.435  1.00  0.00    -0.007 A 
ATOM     21  O   UNL     1       4.713   1.382   4.298  1.00  0.00    -0.269 OA
ATOM     22  C   UNL     1       4.797   3.540   5.306  1.00  0.00     0.045 A 
ATOM     23  C   UNL     1      -0.405   3.470   6.887  1.00  0.00     0.003 A 
ATOM     24  N   UNL     1       0.969   5.186   6.456  1.00  0.00    -0.356 N 
ATOM     25  C   UNL     1       4.162   5.764   6.055  1.00  0.00     0.007 A 
ATOM     26  C   UNL     1       6.098   3.696   5.788  1.00  0.00     0.014 A 
ATOM     27  C   UNL     1      -0.139   4.833   7.170  1.00  0.00     0.046 A 
ATOM     28  C   UNL     1      -1.487   2.803   7.471  1.00  0.00     0.010 A 
ATOM     29  H   UNL     1       1.405   6.119   6.462  1.00  0.00     0.166 HD
ATOM     30  C   UNL     1       5.460   5.905   6.537  1.00  0.00     0.000 A 
ATOM     31  C   UNL     1       6.399   4.902   6.403  1.00  0.00     0.001 A 
ATOM     32  C   UNL     1      -0.956   5.548   8.043  1.00  0.00     0.026 A 
ATOM     33  C   UNL     1      -2.274   3.531   8.328  1.00  0.00     0.001 A 
ATOM     34  C   UNL     1      -2.019   4.864   8.607  1.00  0.00     0.002 A 
ENDBRANCH  10  13
ENDBRANCH   5   9
ENDBRANCH   1   5
BRANCH   3  35
ATOM     35  C   UNL     1      -4.367   1.310   0.289  1.00  0.00     0.151 C 
BRANCH  35  36
ATOM     36  C   UNL     1      -5.096   1.809  -0.932  1.00  0.00    -0.029 A 
ATOM     37  C   UNL     1      -5.077   1.068  -2.099  1.00  0.00     0.008 A 
ATOM     38  C   UNL     1      -5.788   3.005  -0.882  1.00  0.00     0.008 A 
ATOM     39  C   UNL     1      -5.745   1.525  -3.219  1.00  0.00     0.039 A 
ATOM     40  C   UNL     1      -6.452   3.466  -2.002  1.00  0.00     0.039 A 
ATOM     41  C   UNL     1      -6.434   2.725  -3.172  1.00  0.00     0.123 A 
ATOM     42  F   UNL     1      -7.087   3.173  -4.266  1.00  0.00    -0.207 F 
ENDBRANCH  35  36
ENDBRANCH   3  35
TORSDOF 6
