REMARK SMILES CC(C)(C)NC(=O)c1cc2ccccc2cc1CC[C@@H](O)Cc1ccc2ccccc2c1C(=O)NC(C)(C)C
REMARK SMILES IDX 19 1 18 2 17 3 8 4 9 5 16 6 10 7 15 8 11 9 14 10 12 11 13 12
REMARK SMILES IDX 6 13 5 14 7 16 2 17 1 18 3 19 4 20 20 21 22 22 23 23 32 24
REMARK SMILES IDX 24 25 31 26 25 27 26 28 30 29 27 30 29 31 28 32 33 33 34 34
REMARK SMILES IDX 35 35 36 37 37 38 38 39 39 40 21 41
REMARK H PARENT 5 15 35 36 21 42
REMARK Flexibility Score: inf
ROOT
ATOM      1  C   UNL     1       5.228  -1.226   0.668  1.00  0.00     0.037 C 
ENDROOT
BRANCH   1   2
ATOM      2  C   UNL     1       6.368  -0.649   1.510  1.00  0.00     0.039 C 
BRANCH   2   3
ATOM      3  C   UNL     1       7.418  -0.065   0.600  1.00  0.00    -0.035 A 
ATOM      4  C   UNL     1       7.268   1.248   0.120  1.00  0.00     0.043 A 
ATOM      5  C   UNL     1       8.224   1.805  -0.714  1.00  0.00     0.022 A 
ATOM      6  C   UNL     1       8.494  -0.815   0.250  1.00  0.00     0.013 A 
ATOM      7  C   UNL     1       9.342   1.045  -1.085  1.00  0.00    -0.018 A 
ATOM      8  C   UNL     1       9.479  -0.280  -0.598  1.00  0.00    -0.018 A 
ATOM      9  C   UNL     1      10.331   1.574  -1.934  1.00  0.00     0.009 A 
ATOM     10  C   UNL     1      10.602  -1.037  -0.974  1.00  0.00     0.009 A 
ATOM     11  C   UNL     1      11.404   0.810  -2.276  1.00  0.00     0.001 A 
ATOM     12  C   UNL     1      11.539  -0.492  -1.797  1.00  0.00     0.001 A 
BRANCH   4  13
ATOM     13  C   UNL     1       6.084   2.041   0.511  1.00  0.00     0.251 C 
ATOM     14  N   UNL     1       6.002   3.342   0.171  1.00  0.00    -0.347 N 
ATOM     15  H   UNL     1       6.764   3.784  -0.363  1.00  0.00     0.164 HD
ATOM     16  O   UNL     1       5.184   1.520   1.141  1.00  0.00    -0.269 OA
BRANCH  14  17
ATOM     17  C   UNL     1       4.829   4.129   0.559  1.00  0.00     0.032 C 
ATOM     18  C   UNL     1       4.702   4.137   2.084  1.00  0.00     0.034 C 
ATOM     19  C   UNL     1       4.986   5.564   0.052  1.00  0.00     0.034 C 
ATOM     20  C   UNL     1       3.572   3.507  -0.054  1.00  0.00     0.034 C 
ENDBRANCH  14  17
ENDBRANCH   4  13
ENDBRANCH   2   3
ENDBRANCH   1   2
BRANCH   1  21
ATOM     21  C   UNL     1       4.162  -1.819   1.592  1.00  0.00     0.119 C 
BRANCH  21  22
ATOM     22  C   UNL     1       3.083  -2.505   0.751  1.00  0.00     0.068 C 
BRANCH  22  23
ATOM     23  C   UNL     1       2.099  -3.194   1.662  1.00  0.00    -0.032 A 
ATOM     24  C   UNL     1       1.039  -2.476   2.198  1.00  0.00     0.050 A 
ATOM     25  C   UNL     1       2.265  -4.540   1.962  1.00  0.00     0.005 A 
ATOM     26  C   UNL     1       0.096  -3.169   3.073  1.00  0.00    -0.005 A 
ATOM     27  C   UNL     1       1.399  -5.206   2.773  1.00  0.00     0.009 A 
ATOM     28  C   UNL     1       0.300  -4.544   3.346  1.00  0.00    -0.018 A 
ATOM     29  C   UNL     1      -0.998  -2.505   3.642  1.00  0.00     0.009 A 
ATOM     30  C   UNL     1      -0.603  -5.218   4.186  1.00  0.00     0.009 A 
ATOM     31  C   UNL     1      -1.854  -3.190   4.452  1.00  0.00     0.001 A 
ATOM     32  C   UNL     1      -1.656  -4.542   4.723  1.00  0.00     0.001 A 
BRANCH  24  33
ATOM     33  C   UNL     1       0.865  -1.045   1.887  1.00  0.00     0.252 C 
ATOM     34  O   UNL     1       1.382  -0.202   2.594  1.00  0.00    -0.269 OA
ATOM     35  N   UNL     1       0.133  -0.672   0.819  1.00  0.00    -0.347 N 
ATOM     36  H   UNL     1      -0.305  -1.386   0.219  1.00  0.00     0.164 HD
BRANCH  35  37
ATOM     37  C   UNL     1      -0.040   0.750   0.509  1.00  0.00     0.032 C 
ATOM     38  C   UNL     1       1.329   1.387   0.261  1.00  0.00     0.034 C 
ATOM     39  C   UNL     1      -0.906   0.897  -0.743  1.00  0.00     0.034 C 
ATOM     40  C   UNL     1      -0.722   1.448   1.687  1.00  0.00     0.034 C 
ENDBRANCH  35  37
ENDBRANCH  24  33
ENDBRANCH  22  23
ENDBRANCH  21  22
BRANCH  21  41
ATOM     41  O   UNL     1       3.569  -0.775   2.367  1.00  0.00    -0.393 OA
ATOM     42  H   UNL     1       3.150  -0.112   1.763  1.00  0.00     0.210 HD
ENDBRANCH  21  41
ENDBRANCH   1  21
TORSDOF 10
