REMARK SMILES CCOC(=O)c1c(-c2ccc(F)cc2)csc1NC(=O)CSc1nnc(-c2ccco2)n1C
REMARK SMILES IDX 18 1 19 2 20 3 17 5 6 6 7 7 16 8 15 9 4 10 5 11 3 12 2 13
REMARK SMILES IDX 1 14 8 15 14 16 9 17 13 18 10 19 11 20 12 21 21 22 22 23
REMARK SMILES IDX 23 24 32 25 24 26 26 27 33 28 25 29 27 30 31 31 28 32 30 33
REMARK SMILES IDX 29 34
REMARK H PARENT 18 4
REMARK Flexibility Score: inf
ROOT
ATOM      1  N   UNL     1      -1.640  -1.854   0.008  1.00  0.00    -0.316 N 
ATOM      2  C   UNL     1      -1.412  -0.526   0.013  1.00  0.00     0.235 C 
ATOM      3  O   UNL     1      -2.344   0.250   0.026  1.00  0.00    -0.274 OA
ATOM      4  H   UNL     1      -0.848  -2.513  -0.003  1.00  0.00     0.170 HD
ENDROOT
BRANCH   1   5
ATOM      5  C   UNL     1      -2.940  -2.334   0.018  1.00  0.00     0.110 A 
ATOM      6  C   UNL     1      -3.370  -3.654   0.015  1.00  0.00     0.102 A 
ATOM      7  C   UNL     1      -4.803  -3.874   0.028  1.00  0.00     0.009 A 
ATOM      8  S   UNL     1      -4.416  -1.430   0.044  1.00  0.00    -0.125 S 
ATOM      9  C   UNL     1      -5.590  -2.768   0.042  1.00  0.00     0.076 A 
BRANCH   6  10
ATOM     10  C   UNL     1      -2.423  -4.769  -0.001  1.00  0.00     0.341 C 
ATOM     11  O   UNL     1      -2.018  -5.239   1.046  1.00  0.00    -0.246 OA
BRANCH  10  12
ATOM     12  O   UNL     1      -1.998  -5.276  -1.177  1.00  0.00    -0.462 OA
BRANCH  12  13
ATOM     13  C   UNL     1      -1.058  -6.382  -1.117  1.00  0.00     0.230 C 
ATOM     14  C   UNL     1      -0.694  -6.819  -2.537  1.00  0.00     0.049 C 
ENDBRANCH  12  13
ENDBRANCH  10  12
ENDBRANCH   6  10
BRANCH   7  15
ATOM     15  C   UNL     1      -5.381  -5.239   0.025  1.00  0.00    -0.016 A 
ATOM     16  C   UNL     1      -6.358  -5.587   0.957  1.00  0.00     0.012 A 
ATOM     17  C   UNL     1      -4.953  -6.178  -0.912  1.00  0.00     0.012 A 
ATOM     18  C   UNL     1      -6.893  -6.859   0.951  1.00  0.00     0.040 A 
ATOM     19  C   UNL     1      -5.490  -7.449  -0.907  1.00  0.00     0.040 A 
ATOM     20  C   UNL     1      -6.460  -7.790   0.021  1.00  0.00     0.123 A 
ATOM     21  F   UNL     1      -6.987  -9.034   0.019  1.00  0.00    -0.207 F 
ENDBRANCH   7  15
ENDBRANCH   1   5
BRANCH   2  22
ATOM     22  C   UNL     1       0.002  -0.004   0.002  1.00  0.00     0.178 C 
BRANCH  22  23
ATOM     23  S   UNL     1      -0.022   1.806   0.012  1.00  0.00    -0.076 SA
BRANCH  23  24
ATOM     24  C   UNL     1       1.708   2.135  -0.003  1.00  0.00     0.191 A 
ATOM     25  N   UNL     1       2.299   3.368  -0.007  1.00  0.00    -0.303 N 
ATOM     26  N   UNL     1       2.671   1.242  -0.017  1.00  0.00    -0.123 NA
ATOM     27  C   UNL     1       3.655   3.130  -0.017  1.00  0.00     0.200 A 
ATOM     28  C   UNL     1       1.628   4.671  -0.001  1.00  0.00     0.154 C 
ATOM     29  N   UNL     1       3.817   1.825  -0.025  1.00  0.00    -0.126 NA
BRANCH  27  30
ATOM     30  C   UNL     1       4.722   4.143  -0.021  1.00  0.00     0.171 A 
ATOM     31  O   UNL     1       4.572   5.451   0.270  1.00  0.00    -0.461 OA
ATOM     32  C   UNL     1       6.034   3.923  -0.316  1.00  0.00     0.054 A 
ATOM     33  C   UNL     1       5.760   6.070   0.163  1.00  0.00     0.196 A 
ATOM     34  C   UNL     1       6.689   5.164  -0.200  1.00  0.00     0.043 A 
ENDBRANCH  27  30
ENDBRANCH  23  24
ENDBRANCH  22  23
ENDBRANCH   2  22
TORSDOF 9
