REMARK SMILES Cn1nc(-c2ccc(F)cc2)c2c1CCN(C(=O)C[C@H]([NH3+])Cc1cc(F)ccc1F)C2
REMARK SMILES IDX 19 1 17 2 18 3 16 4 1 5 2 6 3 7 13 8 4 9 14 10 12 11 15 12
REMARK SMILES IDX 31 13 5 14 11 15 6 16 10 17 7 18 8 19 9 20 20 21 22 22 23 23
REMARK SMILES IDX 29 24 24 25 28 26 30 27 25 28 27 29 26 30 21 31
REMARK H PARENT 21 32 21 33 21 34
REMARK Flexibility Score: inf
ROOT
ATOM      1  C   UNL     1      -0.876   3.052  -1.022  1.00  0.00     0.165 C 
ENDROOT
BRANCH   1   2
ATOM      2  C   UNL     1      -1.649   3.436   0.213  1.00  0.00     0.228 C 
ATOM      3  O   UNL     1      -2.092   2.575   0.943  1.00  0.00    -0.275 OA
BRANCH   2   4
ATOM      4  N   UNL     1      -1.848   4.737   0.505  1.00  0.00    -0.338 N 
ATOM      5  C   UNL     1      -4.761   8.724  -1.011  1.00  0.00     0.174 C 
ATOM      6  N   UNL     1      -4.468   7.803   0.090  1.00  0.00    -0.272 N 
ATOM      7  N   UNL     1      -5.160   7.731   1.308  1.00  0.00    -0.173 NA
ATOM      8  C   UNL     1      -3.490   6.880   0.108  1.00  0.00     0.045 A 
ATOM      9  C   UNL     1      -4.604   6.785   2.040  1.00  0.00     0.098 A 
ATOM     10  C   UNL     1      -2.489   6.576  -0.978  1.00  0.00     0.078 C 
ATOM     11  C   UNL     1      -3.547   6.238   1.301  1.00  0.00     0.021 A 
ATOM     12  C   UNL     1      -1.319   5.795  -0.367  1.00  0.00     0.126 C 
ATOM     13  C   UNL     1      -2.607   5.133   1.706  1.00  0.00     0.159 C 
BRANCH   9  14
ATOM     14  C   UNL     1      -5.024   6.374   3.403  1.00  0.00     0.003 A 
ATOM     15  C   UNL     1      -5.509   7.323   4.301  1.00  0.00     0.013 A 
ATOM     16  C   UNL     1      -4.940   5.037   3.786  1.00  0.00     0.013 A 
ATOM     17  C   UNL     1      -5.898   6.936   5.567  1.00  0.00     0.040 A 
ATOM     18  C   UNL     1      -5.326   4.660   5.056  1.00  0.00     0.040 A 
ATOM     19  C   UNL     1      -5.807   5.606   5.946  1.00  0.00     0.123 A 
ATOM     20  F   UNL     1      -6.189   5.232   7.187  1.00  0.00    -0.207 F 
ENDBRANCH   9  14
ENDBRANCH   2   4
ENDBRANCH   1   2
BRANCH   1  21
ATOM     21  C   UNL     1      -0.795   1.527  -1.120  1.00  0.00     0.194 C 
BRANCH  21  22
ATOM     22  C   UNL     1      -0.120   1.135  -2.436  1.00  0.00     0.104 C 
BRANCH  22  23
ATOM     23  C   UNL     1      -0.151  -0.364  -2.589  1.00  0.00    -0.003 A 
ATOM     24  C   UNL     1       0.778  -1.147  -1.925  1.00  0.00     0.126 A 
ATOM     25  C   UNL     1      -1.103  -0.957  -3.396  1.00  0.00     0.046 A 
ATOM     26  C   UNL     1       0.747  -2.525  -2.062  1.00  0.00     0.042 A 
ATOM     27  F   UNL     1       1.712  -0.567  -1.139  1.00  0.00    -0.207 F 
ATOM     28  C   UNL     1      -1.131  -2.334  -3.538  1.00  0.00     0.123 A 
ATOM     29  C   UNL     1      -0.205  -3.117  -2.870  1.00  0.00     0.042 A 
ATOM     30  F   UNL     1      -2.062  -2.913  -4.327  1.00  0.00    -0.207 F 
ENDBRANCH  22  23
ENDBRANCH  21  22
BRANCH  21  31
ATOM     31  N   UNL     1      -0.025   1.014   0.027  1.00  0.00    -0.354 N 
ATOM     32  H   UNL     1      -0.493   1.276   0.906  1.00  0.00     0.344 HD
ATOM     33  H   UNL     1       0.926   1.408   0.012  1.00  0.00     0.344 HD
ATOM     34  H   UNL     1       0.032  -0.013  -0.034  1.00  0.00     0.344 HD
ENDBRANCH  21  31
ENDBRANCH   1  21
TORSDOF 7
