REMARK SMILES CCOC(=O)C1=C(C)N=C2SC(C#N)=C(N)N2[C@H]1c1ccc(Cl)cc1
REMARK SMILES IDX 4 1 5 2 3 3 2 4 1 5 6 6 18 7 7 8 17 9 9 10 8 11 10 12 15 13
REMARK SMILES IDX 11 14 12 15 19 16 25 17 20 18 24 19 21 20 22 21 23 22 16 23
REMARK SMILES IDX 13 26 14 27
REMARK H PARENT 16 24 16 25
REMARK Flexibility Score: inf
ROOT
ATOM      1  C   UNL     1       0.547   6.057  -2.467  1.00  0.00     0.338 C 
ATOM      2  O   UNL     1       0.304   6.386  -3.615  1.00  0.00    -0.246 OA
ENDROOT
BRANCH   1   3
ATOM      3  O   UNL     1       1.643   5.315  -2.194  1.00  0.00    -0.463 OA
BRANCH   3   4
ATOM      4  C   UNL     1       2.472   4.953  -3.300  1.00  0.00     0.230 C 
ATOM      5  C   UNL     1       3.655   4.122  -2.799  1.00  0.00     0.049 C 
ENDBRANCH   3   4
ENDBRANCH   1   3
BRANCH   1   6
ATOM      6  C   UNL     1      -0.311   6.447  -1.429  1.00  0.00     0.086 C 
ATOM      7  C   UNL     1      -0.106   5.945  -0.018  1.00  0.00     0.161 C 
ATOM      8  C   UNL     1      -1.368   7.303  -1.664  1.00  0.00     0.053 C 
ATOM      9  N   UNL     1      -1.068   6.416   1.015  1.00  0.00    -0.293 N 
ATOM     10  N   UNL     1      -2.171   7.664  -0.674  1.00  0.00    -0.228 NA
ATOM     11  C   UNL     1      -1.610   7.829  -3.055  1.00  0.00     0.067 C 
ATOM     12  C   UNL     1      -2.049   7.266   0.571  1.00  0.00     0.176 C 
ATOM     13  C   UNL     1      -1.071   6.092   2.340  1.00  0.00     0.131 C 
ATOM     14  S   UNL     1      -2.973   7.611   1.994  1.00  0.00    -0.036 SA
ATOM     15  C   UNL     1      -2.038   6.622   3.148  1.00  0.00     0.133 C 
BRANCH   7  16
ATOM     16  C   UNL     1      -0.160   4.439  -0.049  1.00  0.00    -0.020 A 
ATOM     17  C   UNL     1      -1.380   3.790  -0.010  1.00  0.00     0.008 A 
ATOM     18  C   UNL     1       1.011   3.708  -0.117  1.00  0.00     0.008 A 
ATOM     19  C   UNL     1      -1.430   2.410  -0.045  1.00  0.00     0.021 A 
ATOM     20  C   UNL     1       0.962   2.326  -0.147  1.00  0.00     0.021 A 
ATOM     21  C   UNL     1      -0.258   1.677  -0.108  1.00  0.00     0.041 A 
ATOM     22  Cl  UNL     1      -0.320  -0.058  -0.145  1.00  0.00    -0.084 Cl
ENDBRANCH   7  16
BRANCH  13  23
ATOM     23  N   UNL     1      -0.114   5.243   2.856  1.00  0.00    -0.383 N 
ATOM     24  H   UNL     1       0.608   4.851   2.234  1.00  0.00     0.158 HD
ATOM     25  H   UNL     1      -0.120   5.001   3.857  1.00  0.00     0.158 HD
ENDBRANCH  13  23
BRANCH  15  26
ATOM     26  C   UNL     1      -2.247   6.432   4.552  1.00  0.00     0.110 C 
ATOM     27  N   UNL     1      -2.412   6.282   5.666  1.00  0.00    -0.192 NA
ENDBRANCH  15  26
ENDBRANCH   1   6
TORSDOF 6
