REMARK SMILES Cc1cc2oc(=O)cc(COC(=O)CSc3nc(C)c(C)c(C)c3C(N)=O)c2cc1C(C)C
REMARK SMILES IDX 12 1 13 2 11 3 10 4 9 5 1 6 2 7 30 8 3 9 29 10 4 11 28 12
REMARK SMILES IDX 5 13 6 14 8 15 7 16 31 17 32 18 33 19 14 20 15 21 16 22
REMARK SMILES IDX 17 23 24 24 18 25 22 26 20 27 19 28 23 29 21 30 25 31 27 32
REMARK SMILES IDX 26 33
REMARK H PARENT 26 34 26 35
REMARK Flexibility Score: inf
ROOT
ATOM      1  C   UNL     1       2.928   1.869   5.696  1.00  0.00     0.316 C 
ATOM      2  O   UNL     1       2.627   2.038   6.854  1.00  0.00    -0.251 OA
ENDROOT
BRANCH   1   3
ATOM      3  O   UNL     1       4.220   1.778   5.345  1.00  0.00    -0.460 OA
BRANCH   3   4
ATOM      4  C   UNL     1       5.202   1.891   6.409  1.00  0.00     0.269 C 
BRANCH   4   5
ATOM      5  C   UNL     1       6.587   1.765   5.830  1.00  0.00     0.008 A 
ATOM      6  C   UNL     1      11.261   2.059   9.145  1.00  0.00     0.045 C 
ATOM      7  C   UNL     1      10.034   1.982   8.272  1.00  0.00    -0.044 A 
ATOM      8  C   UNL     1       8.776   2.103   8.844  1.00  0.00    -0.042 A 
ATOM      9  C   UNL     1      10.174   1.791   6.913  1.00  0.00     0.051 A 
ATOM     10  C   UNL     1       7.652   2.035   8.068  1.00  0.00     0.016 A 
ATOM     11  C   UNL     1       9.046   1.720   6.106  1.00  0.00     0.139 A 
ATOM     12  C   UNL     1       7.773   1.843   6.689  1.00  0.00     0.024 A 
ATOM     13  O   UNL     1       9.161   1.534   4.774  1.00  0.00    -0.423 OA
ATOM     14  C   UNL     1       8.080   1.462   3.981  1.00  0.00     0.336 A 
ATOM     15  C   UNL     1       6.772   1.571   4.499  1.00  0.00     0.101 A 
ATOM     16  O   UNL     1       8.232   1.293   2.784  1.00  0.00    -0.246 OA
BRANCH   8  17
ATOM     17  C   UNL     1       8.647   2.310  10.331  1.00  0.00     0.013 C 
ATOM     18  C   UNL     1       8.059   3.696  10.604  1.00  0.00     0.012 C 
ATOM     19  C   UNL     1       7.725   1.240  10.917  1.00  0.00     0.012 C 
ENDBRANCH   8  17
ENDBRANCH   4   5
ENDBRANCH   3   4
ENDBRANCH   1   3
BRANCH   1  20
ATOM     20  C   UNL     1       1.852   1.762   4.645  1.00  0.00     0.199 C 
BRANCH  20  21
ATOM     21  S   UNL     1       0.228   1.923   5.427  1.00  0.00    -0.094 SA
BRANCH  21  22
ATOM     22  C   UNL     1      -0.809   1.765   4.011  1.00  0.00     0.110 A 
ATOM     23  N   UNL     1      -0.269   1.583   2.815  1.00  0.00    -0.246 NA
ATOM     24  C   UNL     1      -2.207   1.832   4.157  1.00  0.00     0.075 A 
ATOM     25  C   UNL     1      -1.009   1.460   1.731  1.00  0.00     0.042 A 
ATOM     26  C   UNL     1      -3.009   1.704   3.018  1.00  0.00    -0.031 A 
ATOM     27  C   UNL     1      -2.390   1.520   1.794  1.00  0.00    -0.026 A 
ATOM     28  C   UNL     1      -0.338   1.255   0.397  1.00  0.00     0.067 C 
ATOM     29  C   UNL     1      -4.511   1.768   3.120  1.00  0.00     0.045 C 
ATOM     30  C   UNL     1      -3.213   1.383   0.539  1.00  0.00     0.046 C 
BRANCH  24  31
ATOM     31  C   UNL     1      -2.814   2.035   5.484  1.00  0.00     0.251 C 
ATOM     32  O   UNL     1      -3.030   3.161   5.889  1.00  0.00    -0.269 OA
ATOM     33  N   UNL     1      -3.131   0.972   6.249  1.00  0.00    -0.366 N 
ATOM     34  H   UNL     1      -2.949   0.018   5.907  1.00  0.00     0.159 HD
ATOM     35  H   UNL     1      -3.556   1.113   7.177  1.00  0.00     0.159 HD
ENDBRANCH  24  31
ENDBRANCH  21  22
ENDBRANCH  20  21
ENDBRANCH   1  20
TORSDOF 8
