REMARK SMILES CCOC(=O)c1nn(-c2ccc(C)cc2)c(=O)cc1N1CC[NH+](C(c2ccccc2)c2ccccc2)CC1
REMARK SMILES IDX 6 1 19 2 18 3 16 4 17 5 8 6 7 7 4 8 5 9 3 10 2 11 1 12 20 13
REMARK SMILES IDX 38 14 21 15 37 16 22 17 23 18 24 20 25 21 30 22 26 23 29 24
REMARK SMILES IDX 27 25 28 26 31 27 36 28 32 29 35 30 33 31 34 32 9 33 15 34
REMARK SMILES IDX 10 35 14 36 11 37 12 38 13 39
REMARK H PARENT 23 19
REMARK Flexibility Score: inf
ROOT
ATOM      1  C   UNL     1       1.705   2.682  -1.430  1.00  0.00     0.192 A 
ATOM      2  C   UNL     1       0.767   1.924  -0.591  1.00  0.00     0.078 A 
ATOM      3  C   UNL     1       1.227   0.743  -0.027  1.00  0.00     0.102 A 
ATOM      4  C   UNL     1       2.549   0.361  -0.299  1.00  0.00     0.273 A 
ATOM      5  O   UNL     1       2.993  -0.671   0.178  1.00  0.00    -0.267 OA
ATOM      6  N   UNL     1       3.328   1.126  -1.081  1.00  0.00    -0.196 N 
ATOM      7  N   UNL     1       2.923   2.220  -1.612  1.00  0.00    -0.155 NA
ENDROOT
BRANCH   1   8
ATOM      8  C   UNL     1       1.284   3.947  -2.063  1.00  0.00     0.360 C 
ATOM      9  O   UNL     1       0.192   4.417  -1.814  1.00  0.00    -0.244 OA
BRANCH   8  10
ATOM     10  O   UNL     1       2.112   4.580  -2.917  1.00  0.00    -0.461 OA
BRANCH  10  11
ATOM     11  C   UNL     1       1.633   5.820  -3.502  1.00  0.00     0.230 C 
ATOM     12  C   UNL     1       2.701   6.389  -4.437  1.00  0.00     0.049 C 
ENDBRANCH  10  11
ENDBRANCH   8  10
ENDBRANCH   1   8
BRANCH   2  13
ATOM     13  N   UNL     1      -0.519   2.373  -0.368  1.00  0.00    -0.358 N 
ATOM     14  C   UNL     1      -1.408   1.996  -1.476  1.00  0.00     0.178 C 
ATOM     15  C   UNL     1      -1.037   1.872   0.913  1.00  0.00     0.178 C 
ATOM     16  C   UNL     1      -2.801   2.578  -1.229  1.00  0.00     0.284 C 
ATOM     17  C   UNL     1      -2.430   2.454   1.160  1.00  0.00     0.284 C 
ATOM     18  N   UNL     1      -3.319   2.050   0.051  1.00  0.00    -0.322 N 
ATOM     19  H   UNL     1      -3.347   1.021   0.001  1.00  0.00     0.349 HD
BRANCH  18  20
ATOM     20  C   UNL     1      -4.688   2.555   0.289  1.00  0.00     0.246 C 
BRANCH  20  21
ATOM     21  C   UNL     1      -5.565   2.163  -0.871  1.00  0.00     0.014 A 
ATOM     22  C   UNL     1      -6.425   3.089  -1.432  1.00  0.00     0.010 A 
ATOM     23  C   UNL     1      -5.506   0.878  -1.379  1.00  0.00     0.010 A 
ATOM     24  C   UNL     1      -7.229   2.729  -2.497  1.00  0.00     0.001 A 
ATOM     25  C   UNL     1      -6.315   0.517  -2.441  1.00  0.00     0.001 A 
ATOM     26  C   UNL     1      -7.175   1.443  -3.001  1.00  0.00     0.000 A 
ENDBRANCH  20  21
BRANCH  20  27
ATOM     27  C   UNL     1      -5.223   1.936   1.555  1.00  0.00     0.014 A 
ATOM     28  C   UNL     1      -6.004   2.686   2.414  1.00  0.00     0.010 A 
ATOM     29  C   UNL     1      -4.938   0.617   1.854  1.00  0.00     0.010 A 
ATOM     30  C   UNL     1      -6.496   2.119   3.575  1.00  0.00     0.001 A 
ATOM     31  C   UNL     1      -5.425   0.051   3.017  1.00  0.00     0.001 A 
ATOM     32  C   UNL     1      -6.206   0.801   3.877  1.00  0.00     0.000 A 
ENDBRANCH  20  27
ENDBRANCH  18  20
ENDBRANCH   2  13
BRANCH   6  33
ATOM     33  C   UNL     1       4.641   0.710  -1.327  1.00  0.00     0.069 A 
ATOM     34  C   UNL     1       5.132   0.687  -2.626  1.00  0.00     0.029 A 
ATOM     35  C   UNL     1       5.458   0.323  -0.272  1.00  0.00     0.029 A 
ATOM     36  C   UNL     1       6.428   0.276  -2.866  1.00  0.00     0.005 A 
ATOM     37  C   UNL     1       6.752  -0.092  -0.519  1.00  0.00     0.005 A 
ATOM     38  C   UNL     1       7.237  -0.113  -1.814  1.00  0.00    -0.051 A 
ATOM     39  C   UNL     1       8.652  -0.561  -2.079  1.00  0.00     0.044 C 
ENDBRANCH   6  33
TORSDOF 8
