REMARK SMILES CC(C)[C@H]1[NH2+][C@H]2CC[C@]34C[C@]35C(=O)C[C@]3(C)[C@@H]([C@H](C)[NH+](C)C)[C@H](O)C[C@@]3(C)[C@@H]5CC[C@H]4[C@]2(C)CO1
REMARK SMILES IDX 4 1 6 2 7 3 8 4 9 5 10 6 11 7 28 8 29 9 30 10 31 11 32 12
REMARK SMILES IDX 34 13 35 14 33 15 26 16 25 17 23 18 17 19 15 20 14 21 12 22
REMARK SMILES IDX 13 23 16 24 27 25 5 26 2 29 1 30 3 31 18 32 19 33 20 34
REMARK SMILES IDX 21 35 22 36 24 38
REMARK H PARENT 5 27 5 28 20 37 24 39
REMARK Flexibility Score: inf
ROOT
ATOM      1  C   UNL     1      -2.430  -0.543   2.208  1.00  0.00     0.323 C 
ATOM      2  C   UNL     1      -0.807   1.250   2.145  1.00  0.00     0.193 C 
ATOM      3  C   UNL     1       0.681   1.579   2.042  1.00  0.00     0.066 C 
ATOM      4  C   UNL     1       0.887   3.098   2.118  1.00  0.00     0.014 C 
ATOM      5  C   UNL     1       0.055   3.748   1.005  1.00  0.00    -0.012 C 
ATOM      6  C   UNL     1       0.696   3.756  -0.389  1.00  0.00     0.024 C 
ATOM      7  C   UNL     1       0.494   5.071   0.406  1.00  0.00     0.039 C 
ATOM      8  C   UNL     1      -0.526   6.019  -0.223  1.00  0.00     0.010 C 
ATOM      9  C   UNL     1      -1.962   5.589   0.064  1.00  0.00     0.005 C 
ATOM     10  C   UNL     1      -2.129   4.079  -0.121  1.00  0.00     0.005 C 
ATOM     11  C   UNL     1      -1.436   3.396   1.058  1.00  0.00     0.010 C 
ATOM     12  C   UNL     1      -1.570   1.877   0.972  1.00  0.00     0.046 C 
ATOM     13  C   UNL     1      -3.042   1.465   1.061  1.00  0.00     0.180 C 
ATOM     14  O   UNL     1      -3.135   0.049   1.116  1.00  0.00    -0.328 OA
ATOM     15  C   UNL     1      -0.978   1.383  -0.350  1.00  0.00     0.020 C 
ATOM     16  C   UNL     1      -0.328   7.441   0.239  1.00  0.00    -0.020 C 
ATOM     17  C   UNL     1      -1.043   8.505  -0.607  1.00  0.00     0.040 C 
ATOM     18  C   UNL     1      -0.287   9.809  -0.256  1.00  0.00     0.124 C 
ATOM     19  C   UNL     1       1.117   9.379   0.229  1.00  0.00     0.083 C 
ATOM     20  C   UNL     1       1.154   7.855   0.093  1.00  0.00    -0.009 C 
ATOM     21  C   UNL     1       1.909   7.148   1.215  1.00  0.00     0.084 C 
ATOM     22  C   UNL     1       1.787   5.668   0.920  1.00  0.00     0.140 C 
ATOM     23  O   UNL     1       2.740   4.949   1.099  1.00  0.00    -0.299 OA
ATOM     24  C   UNL     1       1.694   7.452  -1.280  1.00  0.00     0.013 C 
ATOM     25  C   UNL     1      -0.757   7.572   1.702  1.00  0.00     0.012 C 
ATOM     26  N   UNL     1      -0.995  -0.212   2.117  1.00  0.00    -0.318 N 
ATOM     27  H   UNL     1      -0.495  -0.635   2.912  1.00  0.00     0.348 HD
ATOM     28  H   UNL     1      -0.612  -0.588   1.238  1.00  0.00     0.348 HD
ENDROOT
BRANCH   1  29
ATOM     29  C   UNL     1      -2.598  -2.063   2.158  1.00  0.00     0.071 C 
ATOM     30  C   UNL     1      -4.088  -2.410   2.127  1.00  0.00     0.016 C 
ATOM     31  C   UNL     1      -1.920  -2.609   0.900  1.00  0.00     0.016 C 
ENDBRANCH   1  29
BRANCH  19  32
ATOM     32  C   UNL     1       2.196  10.015  -0.649  1.00  0.00     0.186 C 
ATOM     33  C   UNL     1       3.578   9.640  -0.110  1.00  0.00     0.075 C 
BRANCH  32  34
ATOM     34  N   UNL     1       2.017  11.482  -0.639  1.00  0.00    -0.337 N 
ATOM     35  C   UNL     1       2.318  12.018   0.705  1.00  0.00     0.332 C 
ATOM     36  C   UNL     1       2.905  12.106  -1.642  1.00  0.00     0.332 C 
ATOM     37  H   UNL     1       1.039  11.701  -0.876  1.00  0.00     0.347 HD
ENDBRANCH  32  34
ENDBRANCH  19  32
BRANCH  18  38
ATOM     38  O   UNL     1      -0.969  10.518   0.780  1.00  0.00    -0.393 OA
ATOM     39  H   UNL     1      -1.024   9.942   1.584  1.00  0.00     0.210 HD
ENDBRANCH  18  38
TORSDOF 4
