REMARK SMILES O=C1C=Cc2c(c(N(O)O)c3n2CCCCC3)C1=C(C1=NCCCCC1)[N+](=O)[O-]
REMARK SMILES IDX 20 1 21 2 19 3 11 4 12 5 7 6 5 7 6 8 4 9 18 10 3 11 2 12
REMARK SMILES IDX 1 13 17 14 16 15 15 16 13 18 14 19 8 21 9 22 10 24 27 26
REMARK SMILES IDX 29 27 28 28 26 29 22 31 23 32 24 33 25 34
REMARK H PARENT 9 23 10 25
REMARK Flexibility Score: 180.00
ROOT
ATOM      1  C   UNL     1       0.385  -3.219  -1.073  1.00  0.00     0.113 C 
ATOM      2  N   UNL     1      -0.230  -4.343  -1.070  1.00  0.00    -0.283 NA
ENDROOT
BRANCH   1   3
ATOM      3  C   UNL     1       1.215  -2.899   0.091  1.00  0.00     0.302 C 
ATOM      4  C   UNL     1      -1.391   0.698   0.143  1.00  0.00     0.047 A 
ATOM      5  N   UNL     1      -0.369   1.519   0.522  1.00  0.00    -0.342 N 
ATOM      6  C   UNL     1      -0.923  -0.572   0.020  1.00  0.00     0.124 A 
ATOM      7  C   UNL     1       0.780   0.769   0.662  1.00  0.00     0.052 A 
ATOM      8  C   UNL     1       0.450  -0.551   0.344  1.00  0.00     0.047 A 
ATOM      9  C   UNL     1       2.089   1.106   1.032  1.00  0.00     0.031 C 
ATOM     10  C   UNL     1       1.495  -1.587   0.397  1.00  0.00     0.113 C 
ATOM     11  C   UNL     1       3.086   0.189   1.097  1.00  0.00     0.055 C 
ATOM     12  C   UNL     1       2.860  -1.165   0.793  1.00  0.00     0.193 C 
ATOM     13  O   UNL     1       3.769  -1.977   0.856  1.00  0.00    -0.289 OA
BRANCH   4  14
ATOM     14  C   UNL     1      -2.818   1.132  -0.093  1.00  0.00     0.056 C 
BRANCH  14  15
ATOM     15  C   UNL     1      -2.836   2.601  -0.520  1.00  0.00     0.006 C 
BRANCH  15  16
ATOM     16  C   UNL     1      -2.913   3.492   0.717  1.00  0.00     0.002 CG0
ATOM     17  G   UNL     1      -1.690   3.276   1.605  1.00  0.00     0.000 G0
ENDBRANCH  15  16
ENDBRANCH  14  15
ENDBRANCH   4  14
BRANCH   5  18
ATOM     18  C   UNL     1      -0.469   2.967   0.737  1.00  0.00     0.122 C 
BRANCH  18  19
ATOM     19  C   UNL     1      -1.690   3.276   1.605  1.00  0.00     0.022 CG0
ATOM     20  G   UNL     1      -2.913   3.492   0.717  1.00  0.00     0.000 G0
ENDBRANCH  18  19
ENDBRANCH   5  18
BRANCH   6  21
ATOM     21  N   UNL     1      -1.668  -1.697  -0.359  1.00  0.00    -0.128 N 
BRANCH  21  22
ATOM     22  O   UNL     1      -2.108  -2.454   0.813  1.00  0.00    -0.264 OA
ATOM     23  H   UNL     1      -2.665  -1.866   1.383  1.00  0.00     0.249 HD
ENDBRANCH  21  22
BRANCH  21  24
ATOM     24  O   UNL     1      -2.807  -1.315  -1.194  1.00  0.00    -0.264 OA
ATOM     25  H   UNL     1      -2.471  -0.854  -2.003  1.00  0.00     0.249 HD
ENDBRANCH  21  24
ENDBRANCH   6  21
BRANCH   3  26
ATOM     26  N   UNL     1       1.754  -3.988   0.937  1.00  0.00     0.065 N 
ATOM     27  O   UNL     1       2.354  -3.722   1.963  1.00  0.00    -0.258 OA
ATOM     28  O   UNL     1       1.597  -5.150   0.607  1.00  0.00    -0.258 OA
ENDBRANCH   3  26
ENDBRANCH   1   3
BRANCH   1  29
ATOM     29  C   UNL     1       0.314  -2.202  -2.173  1.00  0.00     0.063 CG1
ATOM     30  G   UNL     1      -1.034  -2.260  -2.891  1.00  0.00     0.000 G1
ENDBRANCH   1  29
BRANCH   2  31
ATOM     31  C   UNL     1      -1.166  -4.763  -2.106  1.00  0.00     0.142 C 
BRANCH  31  32
ATOM     32  C   UNL     1      -0.533  -4.626  -3.496  1.00  0.00     0.024 C 
BRANCH  32  33
ATOM     33  C   UNL     1      -0.919  -3.254  -4.053  1.00  0.00     0.002 C 
BRANCH  33  34
ATOM     34  C   UNL     1      -1.034  -2.260  -2.891  1.00  0.00     0.007 CG1
ATOM     35  G   UNL     1       0.314  -2.202  -2.173  1.00  0.00     0.000 G1
ENDBRANCH  33  34
ENDBRANCH  32  33
ENDBRANCH  31  32
ENDBRANCH   2  31
TORSDOF 5
