REMARK SMILES N#CC1=C(N)Oc2cc(OC(=O)c3ccco3)ccc2[C@H]1c1cccc(OCc2ccccc2)c1
REMARK SMILES IDX 21 1 20 2 19 3 18 4 9 5 8 6 7 7 6 8 4 9 3 10 22 11 26 12
REMARK SMILES IDX 35 13 25 14 24 15 23 16 27 17 28 18 29 19 32 20 33 21 31 22
REMARK SMILES IDX 34 23 30 24 2 25 1 26 5 27 10 30 11 31 12 32 13 33 17 34
REMARK SMILES IDX 14 35 16 36 15 37
REMARK H PARENT 5 28 5 29
REMARK Flexibility Score: inf
ROOT
ATOM      1  C   UNL     1       2.565   5.627   0.043  1.00  0.00     0.100 C 
ATOM      2  C   UNL     1       3.255   6.096  -1.210  1.00  0.00     0.008 A 
ATOM      3  C   UNL     1       2.602   5.989  -2.426  1.00  0.00     0.012 A 
ATOM      4  C   UNL     1       3.219   6.414  -3.586  1.00  0.00     0.048 A 
ATOM      5  C   UNL     1       4.499   6.949  -3.535  1.00  0.00     0.135 A 
ATOM      6  C   UNL     1       5.154   7.058  -2.320  1.00  0.00     0.094 A 
ATOM      7  C   UNL     1       4.532   6.630  -1.154  1.00  0.00     0.137 A 
ATOM      8  O   UNL     1       5.188   6.743   0.028  1.00  0.00    -0.440 OA
ATOM      9  C   UNL     1       4.500   6.707   1.181  1.00  0.00     0.205 C 
ATOM     10  C   UNL     1       3.251   6.191   1.256  1.00  0.00     0.101 C 
ENDROOT
BRANCH   1  11
ATOM     11  C   UNL     1       2.606   4.121   0.102  1.00  0.00    -0.031 A 
ATOM     12  C   UNL     1       1.466   2.014   0.175  1.00  0.00     0.120 A 
ATOM     13  C   UNL     1       1.428   3.399   0.115  1.00  0.00     0.051 A 
ATOM     14  C   UNL     1       2.687   1.357   0.211  1.00  0.00     0.046 A 
ATOM     15  C   UNL     1       3.862   2.083   0.192  1.00  0.00     0.004 A 
ATOM     16  C   UNL     1       3.821   3.464   0.137  1.00  0.00     0.005 A 
BRANCH  12  17
ATOM     17  O   UNL     1       0.309   1.301   0.193  1.00  0.00    -0.489 OA
BRANCH  17  18
ATOM     18  C   UNL     1       0.424  -0.122   0.250  1.00  0.00     0.265 C 
BRANCH  18  19
ATOM     19  C   UNL     1      -0.952  -0.737   0.262  1.00  0.00    -0.011 A 
ATOM     20  C   UNL     1      -3.475  -1.867   0.286  1.00  0.00     0.000 A 
ATOM     21  C   UNL     1      -2.854  -1.538   1.476  1.00  0.00     0.000 A 
ATOM     22  C   UNL     1      -2.835  -1.631  -0.916  1.00  0.00     0.000 A 
ATOM     23  C   UNL     1      -1.590  -0.978   1.465  1.00  0.00     0.007 A 
ATOM     24  C   UNL     1      -1.573  -1.066  -0.928  1.00  0.00     0.007 A 
ENDBRANCH  18  19
ENDBRANCH  17  18
ENDBRANCH  12  17
ENDBRANCH   1  11
BRANCH  10  25
ATOM     25  C   UNL     1       2.569   6.183   2.515  1.00  0.00     0.101 C 
ATOM     26  N   UNL     1       2.028   6.176   3.514  1.00  0.00    -0.193 NA
ENDBRANCH  10  25
BRANCH   9  27
ATOM     27  N   UNL     1       5.082   7.210   2.318  1.00  0.00    -0.369 N 
ATOM     28  H   UNL     1       6.031   7.609   2.292  1.00  0.00     0.159 HD
ATOM     29  H   UNL     1       4.562   7.187   3.207  1.00  0.00     0.159 HD
ENDBRANCH   9  27
BRANCH   5  30
ATOM     30  O   UNL     1       5.107   7.367  -4.676  1.00  0.00    -0.421 OA
BRANCH  30  31
ATOM     31  C   UNL     1       6.162   6.657  -5.129  1.00  0.00     0.379 C 
ATOM     32  O   UNL     1       6.476   5.618  -4.580  1.00  0.00    -0.242 OA
BRANCH  31  33
ATOM     33  C   UNL     1       6.928   7.137  -6.281  1.00  0.00     0.211 A 
ATOM     34  O   UNL     1       6.688   8.268  -6.978  1.00  0.00    -0.457 OA
ATOM     35  C   UNL     1       8.015   6.522  -6.835  1.00  0.00     0.058 A 
ATOM     36  C   UNL     1       7.589   8.383  -7.961  1.00  0.00     0.196 A 
ATOM     37  C   UNL     1       8.426   7.323  -7.911  1.00  0.00     0.043 A 
ENDBRANCH  31  33
ENDBRANCH  30  31
ENDBRANCH   5  30
TORSDOF 9
