REMARK SMILES CCN(CC)S(=O)(=O)c1ccc([C@@H](C)NC(=O)NC2CC[NH+](CCc3ccccc3)CC2)cc1
REMARK SMILES IDX 13 1 14 2 12 3 9 4 34 5 10 6 33 7 11 8 6 9 7 10 8 11 3 12
REMARK SMILES IDX 2 13 1 14 4 15 5 16 15 17 16 18 17 20 18 21 19 23 32 24
REMARK SMILES IDX 20 25 31 26 21 27 22 28 23 30 24 31 25 32 30 33 26 34 29 35
REMARK SMILES IDX 27 36 28 37
REMARK H PARENT 15 19 18 22 22 29
REMARK Flexibility Score: inf
ROOT
ATOM      1  C   UNL     1       3.582   1.747  -0.023  1.00  0.00     0.111 C 
ATOM      2  C   UNL     1       3.942   2.124  -1.461  1.00  0.00     0.036 C 
ENDROOT
BRANCH   1   3
ATOM      3  C   UNL     1       4.678   0.895   0.563  1.00  0.00    -0.026 A 
ATOM      4  C   UNL     1       6.688  -0.669   1.637  1.00  0.00     0.082 A 
ATOM      5  C   UNL     1       5.745  -1.235   0.800  1.00  0.00     0.022 A 
ATOM      6  C   UNL     1       6.626   0.679   1.938  1.00  0.00     0.022 A 
ATOM      7  C   UNL     1       4.737  -0.454   0.267  1.00  0.00     0.007 A 
ATOM      8  C   UNL     1       5.621   1.461   1.400  1.00  0.00     0.007 A 
BRANCH   4   9
ATOM      9  S   UNL     1       7.969  -1.666   2.323  1.00  0.00     0.243 S 
ATOM     10  O   UNL     1       8.126  -2.780   1.454  1.00  0.00    -0.207 OA
ATOM     11  O   UNL     1       9.042  -0.789   2.638  1.00  0.00    -0.207 OA
BRANCH   9  12
ATOM     12  N   UNL     1       7.408  -2.264   3.761  1.00  0.00    -0.198 NA
BRANCH  12  13
ATOM     13  C   UNL     1       6.693  -3.542   3.795  1.00  0.00     0.099 C 
ATOM     14  C   UNL     1       7.675  -4.667   4.129  1.00  0.00     0.022 C 
ENDBRANCH  12  13
BRANCH  12  15
ATOM     15  C   UNL     1       7.626  -1.514   5.001  1.00  0.00     0.099 C 
ATOM     16  C   UNL     1       6.397  -0.652   5.299  1.00  0.00     0.022 C 
ENDBRANCH  12  15
ENDBRANCH   9  12
ENDBRANCH   4   9
ENDBRANCH   1   3
BRANCH   1  17
ATOM     17  N   UNL     1       2.323   0.998  -0.015  1.00  0.00    -0.332 N 
ATOM     18  C   UNL     1       1.147   1.655   0.000  1.00  0.00     0.315 C 
ATOM     19  H   UNL     1       2.337  -0.032  -0.021  1.00  0.00     0.165 HD
ATOM     20  O   UNL     1       1.130   2.871   0.007  1.00  0.00    -0.249 OA
ATOM     21  N   UNL     1      -0.011   0.966   0.007  1.00  0.00    -0.335 N 
ATOM     22  H   UNL     1       0.003  -0.064   0.006  1.00  0.00     0.165 HD
BRANCH  21  23
ATOM     23  C   UNL     1      -1.290   1.681   0.017  1.00  0.00     0.095 C 
ATOM     24  C   UNL     1      -2.378   0.793  -0.592  1.00  0.00     0.086 C 
ATOM     25  C   UNL     1      -1.672   2.026   1.459  1.00  0.00     0.086 C 
ATOM     26  C   UNL     1      -3.722   1.521  -0.524  1.00  0.00     0.264 C 
ATOM     27  C   UNL     1      -3.037   2.718   1.469  1.00  0.00     0.264 C 
ATOM     28  N   UNL     1      -4.043   1.828   0.876  1.00  0.00    -0.335 N 
ATOM     29  H   UNL     1      -4.028   0.943   1.403  1.00  0.00     0.348 HD
BRANCH  28  30
ATOM     30  C   UNL     1      -5.389   2.403   0.994  1.00  0.00     0.267 C 
BRANCH  30  31
ATOM     31  C   UNL     1      -5.785   2.478   2.470  1.00  0.00     0.097 C 
BRANCH  31  32
ATOM     32  C   UNL     1      -7.167   3.068   2.590  1.00  0.00    -0.042 A 
ATOM     33  C   UNL     1      -8.275   2.242   2.573  1.00  0.00     0.004 A 
ATOM     34  C   UNL     1      -7.325   4.435   2.723  1.00  0.00     0.004 A 
ATOM     35  C   UNL     1      -9.542   2.783   2.684  1.00  0.00     0.000 A 
ATOM     36  C   UNL     1      -8.592   4.976   2.829  1.00  0.00     0.000 A 
ATOM     37  C   UNL     1      -9.701   4.151   2.811  1.00  0.00     0.000 A 
ENDBRANCH  31  32
ENDBRANCH  30  31
ENDBRANCH  28  30
ENDBRANCH  21  23
ENDBRANCH   1  17
TORSDOF 10
