REMARK SMILES CCCn1c2ccccc2c2nnc(SCC(=O)Nc3sc4c(c3C(=O)OCC)CCCC4)nc21
REMARK SMILES IDX 17 1 18 2 19 3 16 5 15 6 14 7 4 8 35 9 5 10 11 11 34 12
REMARK SMILES IDX 10 13 6 14 12 15 9 16 7 17 13 18 8 19 3 20 2 21 1 22 20 23
REMARK SMILES IDX 21 24 24 25 22 26 23 27 33 28 30 29 32 30 31 31 25 32 26 33
REMARK SMILES IDX 27 34 28 35 29 36
REMARK H PARENT 19 4
REMARK Flexibility Score: inf
ROOT
ATOM      1  C   UNL     1      -2.768  -5.761   4.691  1.00  0.00     0.235 C 
ATOM      2  O   UNL     1      -3.606  -5.867   3.820  1.00  0.00    -0.274 OA
ATOM      3  N   UNL     1      -2.628  -6.734   5.612  1.00  0.00    -0.316 N 
ATOM      4  H   UNL     1      -1.916  -6.644   6.352  1.00  0.00     0.170 HD
ENDROOT
BRANCH   1   5
ATOM      5  C   UNL     1      -1.885  -4.541   4.742  1.00  0.00     0.178 C 
BRANCH   5   6
ATOM      6  S   UNL     1      -2.315  -3.428   3.381  1.00  0.00    -0.074 SA
BRANCH   6   7
ATOM      7  C   UNL     1      -1.163  -2.127   3.675  1.00  0.00     0.211 A 
ATOM      8  N   UNL     1      -0.020   1.094   2.454  1.00  0.00    -0.324 N 
ATOM      9  C   UNL     1      -0.284  -0.092   3.093  1.00  0.00     0.164 A 
ATOM     10  C   UNL     1       1.006   1.770   3.093  1.00  0.00     0.052 A 
ATOM     11  C   UNL     1       0.599  -0.217   4.186  1.00  0.00     0.138 A 
ATOM     12  N   UNL     1      -1.150  -1.075   2.867  1.00  0.00    -0.201 NA
ATOM     13  C   UNL     1       1.433   0.998   4.184  1.00  0.00     0.030 A 
ATOM     14  C   UNL     1       1.624   2.990   2.840  1.00  0.00     0.027 A 
ATOM     15  N   UNL     1       0.536  -1.293   4.955  1.00  0.00    -0.144 NA
ATOM     16  C   UNL     1       2.465   1.454   5.001  1.00  0.00     0.013 A 
ATOM     17  C   UNL     1       2.644   3.431   3.656  1.00  0.00     0.002 A 
ATOM     18  N   UNL     1      -0.324  -2.219   4.702  1.00  0.00    -0.122 NA
ATOM     19  C   UNL     1       3.065   2.666   4.733  1.00  0.00     0.001 A 
BRANCH   8  20
ATOM     20  C   UNL     1      -0.729   1.579   1.267  1.00  0.00     0.124 C 
BRANCH  20  21
ATOM     21  C   UNL     1      -0.013   1.086   0.008  1.00  0.00     0.018 C 
ATOM     22  C   UNL     1      -0.753   1.593  -1.232  1.00  0.00     0.006 C 
ENDBRANCH  20  21
ENDBRANCH   8  20
ENDBRANCH   6   7
ENDBRANCH   5   6
ENDBRANCH   1   5
BRANCH   3  23
ATOM     23  C   UNL     1      -3.440  -7.856   5.565  1.00  0.00     0.110 A 
ATOM     24  S   UNL     1      -4.694  -8.231   4.430  1.00  0.00    -0.122 S 
ATOM     25  C   UNL     1      -3.443  -8.956   6.413  1.00  0.00     0.098 A 
ATOM     26  C   UNL     1      -5.205  -9.798   5.075  1.00  0.00     0.011 A 
ATOM     27  C   UNL     1      -4.410 -10.008   6.146  1.00  0.00    -0.017 A 
ATOM     28  C   UNL     1      -6.280 -10.704   4.557  1.00  0.00     0.047 C 
ATOM     29  C   UNL     1      -4.542 -11.271   6.986  1.00  0.00     0.038 C 
ATOM     30  C   UNL     1      -6.099 -12.086   5.201  1.00  0.00     0.006 C 
ATOM     31  C   UNL     1      -5.905 -11.907   6.709  1.00  0.00     0.005 C 
BRANCH  25  32
ATOM     32  C   UNL     1      -2.509  -9.051   7.538  1.00  0.00     0.341 C 
ATOM     33  O   UNL     1      -2.822  -8.609   8.627  1.00  0.00    -0.246 OA
BRANCH  32  34
ATOM     34  O   UNL     1      -1.302  -9.628   7.366  1.00  0.00    -0.462 OA
BRANCH  34  35
ATOM     35  C   UNL     1      -0.429  -9.687   8.524  1.00  0.00     0.230 C 
ATOM     36  C   UNL     1       0.885 -10.370   8.138  1.00  0.00     0.049 C 
ENDBRANCH  34  35
ENDBRANCH  32  34
ENDBRANCH  25  32
ENDBRANCH   3  23
TORSDOF 9
