REMARK SMILES Nc1nc(CN2CCN(C(=O)c3cn(Cc4ccccc4)c4ccccc34)CC2)nc2ccccc12
REMARK SMILES IDX 10 1 11 2 9 3 8 4 7 5 6 6 29 7 28 8 12 9 14 10 22 11 13 12
REMARK SMILES IDX 27 13 23 14 26 15 24 16 25 17 15 18 16 19 19 20 20 21 18 22
REMARK SMILES IDX 21 23 17 24 5 25 4 26 3 27 30 28 2 29 31 30 36 31 32 32
REMARK SMILES IDX 35 33 33 34 34 35 1 36
REMARK H PARENT 1 37 1 38
REMARK Flexibility Score: inf
ROOT
ATOM      1  C   UNL     1      -0.520   3.859  -2.144  1.00  0.00     0.256 C 
ATOM      2  O   UNL     1       0.275   3.421  -2.955  1.00  0.00    -0.269 OA
ATOM      3  N   UNL     1      -1.173   3.017  -1.318  1.00  0.00    -0.336 N 
ATOM      4  C   UNL     1      -1.029   1.560  -1.457  1.00  0.00     0.135 C 
ATOM      5  C   UNL     1      -0.670   0.973  -0.088  1.00  0.00     0.106 C 
ATOM      6  N   UNL     1      -1.664   1.407   0.903  1.00  0.00    -0.292 NA
ATOM      7  C   UNL     1      -1.650   2.867   1.068  1.00  0.00     0.106 C 
ATOM      8  C   UNL     1      -2.049   3.531  -0.254  1.00  0.00     0.135 C 
ENDROOT
BRANCH   1   9
ATOM      9  C   UNL     1      -0.767   5.305  -2.064  1.00  0.00     0.065 A 
ATOM     10  N   UNL     1      -1.799   7.261  -1.833  1.00  0.00    -0.342 N 
ATOM     11  C   UNL     1      -0.477   7.584  -2.061  1.00  0.00     0.049 A 
ATOM     12  C   UNL     1      -1.966   5.917  -1.842  1.00  0.00     0.101 A 
ATOM     13  C   UNL     1       0.230   6.380  -2.216  1.00  0.00     0.012 A 
ATOM     14  C   UNL     1       0.206   8.792  -2.154  1.00  0.00     0.027 A 
ATOM     15  C   UNL     1       1.600   6.402  -2.461  1.00  0.00     0.011 A 
ATOM     16  C   UNL     1       1.562   8.799  -2.396  1.00  0.00     0.002 A 
ATOM     17  C   UNL     1       2.259   7.609  -2.549  1.00  0.00     0.001 A 
BRANCH  10  18
ATOM     18  C   UNL     1      -2.872   8.235  -1.618  1.00  0.00     0.157 C 
BRANCH  18  19
ATOM     19  C   UNL     1      -3.407   8.695  -2.949  1.00  0.00    -0.028 A 
ATOM     20  C   UNL     1      -4.390   9.540  -5.391  1.00  0.00     0.000 A 
ATOM     21  C   UNL     1      -3.341  10.217  -4.796  1.00  0.00     0.000 A 
ATOM     22  C   UNL     1      -4.947   8.441  -4.765  1.00  0.00     0.000 A 
ATOM     23  C   UNL     1      -2.854   9.798  -3.573  1.00  0.00     0.005 A 
ATOM     24  C   UNL     1      -4.455   8.018  -3.544  1.00  0.00     0.005 A 
ENDBRANCH  18  19
ENDBRANCH  10  18
ENDBRANCH   1   9
BRANCH   6  25
ATOM     25  C   UNL     1      -1.455   0.730   2.190  1.00  0.00     0.162 C 
BRANCH  25  26
ATOM     26  C   UNL     1      -2.323   1.371   3.242  1.00  0.00     0.145 A 
ATOM     27  N   UNL     1      -1.829   2.380   3.940  1.00  0.00    -0.214 NA
ATOM     28  N   UNL     1      -3.533   0.899   3.428  1.00  0.00    -0.231 NA
ATOM     29  C   UNL     1      -2.543   2.991   4.876  1.00  0.00     0.135 A 
ATOM     30  C   UNL     1      -4.339   1.439   4.354  1.00  0.00     0.076 A 
ATOM     31  C   UNL     1      -3.858   2.527   5.123  1.00  0.00     0.042 A 
ATOM     32  C   UNL     1      -5.637   0.960   4.580  1.00  0.00     0.029 A 
ATOM     33  C   UNL     1      -4.681   3.106   6.095  1.00  0.00     0.014 A 
ATOM     34  C   UNL     1      -6.414   1.547   5.534  1.00  0.00     0.002 A 
ATOM     35  C   UNL     1      -5.939   2.615   6.289  1.00  0.00     0.001 A 
BRANCH  29  36
ATOM     36  N   UNL     1      -2.018   4.046   5.591  1.00  0.00    -0.383 N 
ATOM     37  H   UNL     1      -2.594   4.500   6.315  1.00  0.00     0.158 HD
ATOM     38  H   UNL     1      -1.061   4.378   5.406  1.00  0.00     0.158 HD
ENDBRANCH  29  36
ENDBRANCH  25  26
ENDBRANCH   6  25
TORSDOF 6
