REMARK SMILES Cc1sc2nc(C(C)C)nc(NCCNC(=O)c3cc4c(C)nn(-c5ccccc5)c4s3)c2c1C
REMARK SMILES IDX 13 1 12 2 11 4 35 5 34 6 33 7 2 8 4 9 3 10 1 11 5 12 10 13
REMARK SMILES IDX 6 14 7 15 8 16 9 17 14 18 15 19 16 20 17 22 18 23 32 24
REMARK SMILES IDX 19 25 31 26 20 27 24 28 21 29 23 30 22 31 25 32 30 33 26 34
REMARK SMILES IDX 29 35 27 36 28 37
REMARK H PARENT 12 3 15 21
REMARK Flexibility Score: inf
ROOT
ATOM      1  C   UNL     1      -3.562   2.833  -0.299  1.00  0.00     0.135 C 
ENDROOT
BRANCH   1   2
ATOM      2  N   UNL     1      -2.438   1.909  -0.131  1.00  0.00    -0.368 N 
ATOM      3  H   UNL     1      -2.612   0.901  -0.014  1.00  0.00     0.162 HD
BRANCH   2   4
ATOM      4  C   UNL     1      -1.141   2.391  -0.132  1.00  0.00     0.138 A 
ATOM      5  C   UNL     1      -1.345  -0.660   0.546  1.00  0.00     0.046 C 
ATOM      6  C   UNL     1      -0.051   0.109   0.485  1.00  0.00    -0.024 A 
ATOM      7  C   UNL     1      -0.051   1.525   0.160  1.00  0.00     0.057 A 
ATOM      8  C   UNL     1       1.116  -0.506   0.732  1.00  0.00     0.007 A 
ATOM      9  C   UNL     1       1.225   2.129   0.136  1.00  0.00     0.129 A 
ATOM     10  S   UNL     1       2.321   0.795   0.541  1.00  0.00    -0.120 S 
ATOM     11  C   UNL     1       1.351  -1.952   1.085  1.00  0.00     0.057 C 
ATOM     12  N   UNL     1       1.375   3.408  -0.144  1.00  0.00    -0.222 NA
ATOM     13  N   UNL     1      -0.898   3.662  -0.408  1.00  0.00    -0.215 NA
ATOM     14  C   UNL     1       0.325   4.160  -0.412  1.00  0.00     0.134 A 
BRANCH  14  15
ATOM     15  C   UNL     1       0.525   5.620  -0.729  1.00  0.00     0.051 C 
ATOM     16  C   UNL     1       1.195   6.313   0.459  1.00  0.00     0.016 C 
ATOM     17  C   UNL     1       1.414   5.755  -1.967  1.00  0.00     0.016 C 
ENDBRANCH  14  15
ENDBRANCH   2   4
ENDBRANCH   1   2
BRANCH   1  18
ATOM     18  C   UNL     1      -4.876   2.049  -0.262  1.00  0.00     0.137 C 
BRANCH  18  19
ATOM     19  N   UNL     1      -6.000   2.973  -0.429  1.00  0.00    -0.350 N 
ATOM     20  C   UNL     1      -7.264   2.503  -0.429  1.00  0.00     0.261 C 
ATOM     21  H   UNL     1      -5.825   3.981  -0.547  1.00  0.00     0.163 HD
ATOM     22  O   UNL     1      -7.470   1.312  -0.290  1.00  0.00    -0.268 OA
BRANCH  20  23
ATOM     23  C   UNL     1      -8.389   3.428  -0.597  1.00  0.00     0.095 A 
ATOM     24  S   UNL     1      -8.354   5.198  -0.817  1.00  0.00    -0.110 S 
ATOM     25  C   UNL     1      -9.723   3.148  -0.630  1.00  0.00     0.038 A 
ATOM     26  C   UNL     1     -10.102   5.478  -0.933  1.00  0.00     0.128 A 
ATOM     27  C   UNL     1     -10.647   4.192  -0.797  1.00  0.00     0.035 A 
ATOM     28  N   UNL     1     -11.112   6.359  -1.090  1.00  0.00    -0.223 N 
ATOM     29  C   UNL     1     -12.065   4.381  -0.886  1.00  0.00     0.069 A 
ATOM     30  N   UNL     1     -12.316   5.644  -1.056  1.00  0.00    -0.171 NA
ATOM     31  C   UNL     1     -13.100   3.289  -0.796  1.00  0.00     0.069 C 
BRANCH  28  32
ATOM     32  C   UNL     1     -10.979   7.743  -1.257  1.00  0.00     0.066 A 
ATOM     33  C   UNL     1     -11.861   8.432  -2.079  1.00  0.00     0.028 A 
ATOM     34  C   UNL     1      -9.969   8.430  -0.597  1.00  0.00     0.028 A 
ATOM     35  C   UNL     1     -11.727   9.797  -2.243  1.00  0.00     0.002 A 
ATOM     36  C   UNL     1      -9.837   9.794  -0.768  1.00  0.00     0.002 A 
ATOM     37  C   UNL     1     -10.717  10.477  -1.587  1.00  0.00     0.000 A 
ENDBRANCH  28  32
ENDBRANCH  20  23
ENDBRANCH  18  19
ENDBRANCH   1  18
TORSDOF 7
