REMARK SMILES Cc1n[nH]c2c1[C@H](c1cn(Cc3ccc(Br)cc3)nc1-c1ccccc1)C(C#N)=C(N)O2
REMARK SMILES IDX 8 1 9 2 10 3 19 4 20 5 7 6 1 7 2 8 3 9 6 10 4 11 5 12 27 14
REMARK SMILES IDX 32 15 30 16 28 17 29 18 31 19 21 22 26 23 22 24 25 25 23 26
REMARK SMILES IDX 24 27 11 28 12 29 18 30 13 31 17 32 14 33 15 34 16 35
REMARK H PARENT 4 13 31 20 31 21
REMARK Flexibility Score: inf
ROOT
ATOM      1  C   UNL     1      -2.008   5.017   0.801  1.00  0.00     0.011 A 
ATOM      2  C   UNL     1      -2.386   4.500   1.990  1.00  0.00     0.114 A 
ATOM      3  N   UNL     1      -2.268   5.471   2.922  1.00  0.00    -0.267 N 
ATOM      4  N   UNL     1      -1.810   6.632   2.287  1.00  0.00    -0.172 NA
ATOM      5  C   UNL     1      -1.652   6.364   1.008  1.00  0.00     0.096 A 
ENDROOT
BRANCH   1   6
ATOM      6  C   UNL     1      -1.979   4.285  -0.516  1.00  0.00     0.107 C 
ATOM      7  C   UNL     1       1.221   3.978  -0.225  1.00  0.00     0.069 C 
ATOM      8  C   UNL     1       0.204   2.866  -0.250  1.00  0.00     0.067 A 
ATOM      9  N   UNL     1       0.462   1.583  -0.155  1.00  0.00    -0.177 NA
ATOM     10  C   UNL     1      -1.170   3.021  -0.377  1.00  0.00     0.050 A 
ATOM     11  N   UNL     1      -0.751   0.880  -0.220  1.00  0.00    -0.246 N 
ATOM     12  C   UNL     1      -1.739   1.778  -0.362  1.00  0.00     0.221 A 
ATOM     13  H   UNL     1      -0.863  -0.142  -0.168  1.00  0.00     0.193 HD
ATOM     14  C   UNL     1      -3.379   3.903  -0.932  1.00  0.00     0.102 C 
ATOM     15  O   UNL     1      -3.077   1.584  -0.476  1.00  0.00    -0.422 OA
ATOM     16  C   UNL     1      -3.827   2.628  -0.884  1.00  0.00     0.207 C 
BRANCH  14  17
ATOM     17  C   UNL     1      -4.268   4.929  -1.388  1.00  0.00     0.101 C 
ATOM     18  N   UNL     1      -4.973   5.743  -1.749  1.00  0.00    -0.193 NA
ENDBRANCH  14  17
BRANCH  16  19
ATOM     19  N   UNL     1      -5.120   2.382  -1.273  1.00  0.00    -0.369 N 
ATOM     20  H   UNL     1      -5.513   1.431  -1.257  1.00  0.00     0.159 HD
ATOM     21  H   UNL     1      -5.706   3.169  -1.588  1.00  0.00     0.159 HD
ENDBRANCH  16  19
ENDBRANCH   1   6
BRANCH   5  22
ATOM     22  C   UNL     1      -1.181   7.313  -0.031  1.00  0.00     0.002 A 
ATOM     23  C   UNL     1      -1.577   8.648   0.010  1.00  0.00     0.010 A 
ATOM     24  C   UNL     1      -0.336   6.873  -1.048  1.00  0.00     0.010 A 
ATOM     25  C   UNL     1      -1.135   9.527  -0.959  1.00  0.00     0.001 A 
ATOM     26  C   UNL     1       0.095   7.759  -2.015  1.00  0.00     0.001 A 
ATOM     27  C   UNL     1      -0.301   9.083  -1.969  1.00  0.00     0.000 A 
ENDBRANCH   5  22
BRANCH   3  28
ATOM     28  C   UNL     1      -2.572   5.333   4.349  1.00  0.00     0.179 C 
BRANCH  28  29
ATOM     29  C   UNL     1      -1.370   5.743   5.160  1.00  0.00    -0.026 A 
ATOM     30  C   UNL     1      -1.219   7.059   5.556  1.00  0.00     0.007 A 
ATOM     31  C   UNL     1      -0.421   4.802   5.514  1.00  0.00     0.007 A 
ATOM     32  C   UNL     1      -0.117   7.436   6.300  1.00  0.00     0.016 A 
ATOM     33  C   UNL     1       0.683   5.178   6.254  1.00  0.00     0.016 A 
ATOM     34  C   UNL     1       0.835   6.495   6.650  1.00  0.00     0.017 A 
ATOM     35  Br  UNL     1       2.343   7.009   7.668  1.00  0.00    -0.051 Br
ENDBRANCH  28  29
ENDBRANCH   3  28
TORSDOF 6
