REMARK SMILES Cc1ccc2cc(C[N@H+](C3CCCCC3)[C@@H](c3nnnn3C3CCCC3)C(C)C)c(=O)[nH]c2c1
REMARK SMILES IDX 9 1 8 3 7 4 1 5 2 6 34 7 3 8 33 9 4 10 5 11 32 12 6 13 30 14
REMARK SMILES IDX 31 16 10 17 15 18 11 19 14 20 12 21 13 22 16 23 17 24 21 25
REMARK SMILES IDX 18 26 20 27 19 28 22 29 26 30 23 31 25 32 24 33 27 34 28 35
REMARK SMILES IDX 29 36
REMARK H PARENT 9 2 32 15
REMARK Flexibility Score: inf
ROOT
ATOM      1  N   UNL     1       2.935   3.272  -0.960  1.00  0.00    -0.320 N 
ATOM      2  H   UNL     1       3.679   2.692  -0.547  1.00  0.00     0.349 HD
ENDROOT
BRANCH   1   3
ATOM      3  C   UNL     1       3.208   4.692  -0.655  1.00  0.00     0.305 C 
BRANCH   3   4
ATOM      4  C   UNL     1       4.575   5.049  -1.179  1.00  0.00     0.072 A 
ATOM      5  C   UNL     1       9.982   6.950  -4.211  1.00  0.00     0.044 C 
ATOM      6  C   UNL     1       8.595   6.613  -3.727  1.00  0.00    -0.049 A 
ATOM      7  C   UNL     1       8.432   5.982  -2.513  1.00  0.00     0.030 A 
ATOM      8  C   UNL     1       7.495   6.943  -4.508  1.00  0.00     0.004 A 
ATOM      9  C   UNL     1       7.152   5.670  -2.064  1.00  0.00     0.049 A 
ATOM     10  C   UNL     1       6.230   6.646  -4.088  1.00  0.00     0.010 A 
ATOM     11  C   UNL     1       6.040   6.005  -2.859  1.00  0.00    -0.001 A 
ATOM     12  N   UNL     1       6.960   5.037  -0.854  1.00  0.00    -0.322 N 
ATOM     13  C   UNL     1       4.699   5.666  -2.381  1.00  0.00     0.025 A 
ATOM     14  C   UNL     1       5.723   4.735  -0.421  1.00  0.00     0.257 A 
ATOM     15  H   UNL     1       7.775   4.792  -0.274  1.00  0.00     0.170 HD
ATOM     16  O   UNL     1       5.591   4.176   0.654  1.00  0.00    -0.269 OA
ENDBRANCH   3   4
ENDBRANCH   1   3
BRANCH   1  17
ATOM     17  C   UNL     1       2.919   3.064  -2.423  1.00  0.00     0.184 C 
ATOM     18  C   UNL     1       3.007   1.563  -2.706  1.00  0.00     0.065 C 
ATOM     19  C   UNL     1       1.630   3.622  -3.030  1.00  0.00     0.065 C 
ATOM     20  C   UNL     1       3.012   1.329  -4.218  1.00  0.00     0.006 C 
ATOM     21  C   UNL     1       1.635   3.388  -4.542  1.00  0.00     0.006 C 
ATOM     22  C   UNL     1       1.723   1.887  -4.825  1.00  0.00     0.000 C 
ENDBRANCH   1  17
BRANCH   1  23
ATOM     23  C   UNL     1       1.636   2.872  -0.378  1.00  0.00     0.258 C 
BRANCH  23  24
ATOM     24  C   UNL     1       1.576   1.367  -0.321  1.00  0.00     0.209 A 
ATOM     25  N   UNL     1       0.532   0.591  -0.667  1.00  0.00    -0.221 N 
ATOM     26  N   UNL     1       2.529   0.560   0.076  1.00  0.00    -0.107 NA
ATOM     27  N   UNL     1       0.887  -0.633  -0.470  1.00  0.00    -0.045 NA
ATOM     28  N   UNL     1       2.094  -0.648  -0.021  1.00  0.00    -0.024 NA
BRANCH  25  29
ATOM     29  C   UNL     1      -0.762   1.050  -1.177  1.00  0.00     0.111 C 
ATOM     30  C   UNL     1      -1.020   0.455  -2.573  1.00  0.00     0.027 C 
ATOM     31  C   UNL     1      -1.899   0.545  -0.265  1.00  0.00     0.027 C 
ATOM     32  C   UNL     1      -2.304  -0.392  -2.461  1.00  0.00     0.002 C 
ATOM     33  C   UNL     1      -3.052   0.211  -1.246  1.00  0.00     0.002 C 
ENDBRANCH  25  29
ENDBRANCH  23  24
BRANCH  23  34
ATOM     34  C   UNL     1       1.521   3.442   1.037  1.00  0.00     0.049 C 
ATOM     35  C   UNL     1       0.190   3.008   1.655  1.00  0.00     0.014 C 
ATOM     36  C   UNL     1       2.676   2.917   1.893  1.00  0.00     0.014 C 
ENDBRANCH  23  34
ENDBRANCH   1  23
TORSDOF 7
