REMARK SMILES CCOC(=O)c1c(NC(=O)C2=C(C)NC(=S)N[C@H]2c2cc3ccccc3nc2O)sc(C)c1C
REMARK SMILES IDX 6 1 33 2 31 3 30 4 7 5 32 6 34 7 4 8 5 9 3 10 2 11 1 12 8 13
REMARK SMILES IDX 9 14 10 16 11 17 18 18 12 19 17 20 14 21 13 22 15 23 16 26
REMARK SMILES IDX 19 27 28 28 20 29 27 30 21 31 26 32 22 33 25 34 23 35 24 36
REMARK SMILES IDX 29 37
REMARK H PARENT 8 15 17 24 14 25 29 38
REMARK Flexibility Score: inf
ROOT
ATOM      1  C   UNL     1      -6.237   3.219  -0.183  1.00  0.00     0.098 A 
ATOM      2  C   UNL     1      -7.347   4.139  -0.105  1.00  0.00    -0.021 A 
ATOM      3  C   UNL     1      -7.054   5.449  -0.011  1.00  0.00     0.007 A 
ATOM      4  S   UNL     1      -5.274   5.473  -0.017  1.00  0.00    -0.122 S 
ATOM      5  C   UNL     1      -4.961   3.774  -0.142  1.00  0.00     0.110 A 
ATOM      6  C   UNL     1      -8.005   6.615   0.080  1.00  0.00     0.057 C 
ATOM      7  C   UNL     1      -8.773   3.654  -0.136  1.00  0.00     0.046 C 
ENDROOT
BRANCH   1   8
ATOM      8  C   UNL     1      -6.443   1.774  -0.295  1.00  0.00     0.341 C 
ATOM      9  O   UNL     1      -6.527   1.092   0.709  1.00  0.00    -0.246 OA
BRANCH   8  10
ATOM     10  O   UNL     1      -6.540   1.199  -1.511  1.00  0.00    -0.462 OA
BRANCH  10  11
ATOM     11  C   UNL     1      -6.744  -0.238  -1.546  1.00  0.00     0.230 C 
ATOM     12  C   UNL     1      -6.828  -0.706  -3.001  1.00  0.00     0.049 C 
ENDBRANCH  10  11
ENDBRANCH   8  10
ENDBRANCH   1   8
BRANCH   5  13
ATOM     13  N   UNL     1      -3.739   3.126  -0.196  1.00  0.00    -0.313 N 
ATOM     14  C   UNL     1      -2.596   3.838  -0.149  1.00  0.00     0.256 C 
ATOM     15  H   UNL     1      -3.704   2.099  -0.272  1.00  0.00     0.171 HD
ATOM     16  O   UNL     1      -2.636   5.055  -0.153  1.00  0.00    -0.269 OA
BRANCH  14  17
ATOM     17  C   UNL     1      -1.348   3.171  -0.095  1.00  0.00     0.063 C 
ATOM     18  C   UNL     1      -1.270   1.664   0.039  1.00  0.00     0.155 C 
ATOM     19  C   UNL     1      -0.187   3.857  -0.165  1.00  0.00     0.025 C 
ATOM     20  N   UNL     1       0.075   1.067   0.092  1.00  0.00    -0.351 N 
ATOM     21  N   UNL     1       1.016   3.212  -0.113  1.00  0.00    -0.336 N 
ATOM     22  C   UNL     1      -0.219   5.357  -0.304  1.00  0.00     0.065 C 
ATOM     23  C   UNL     1       1.143   1.885   0.010  1.00  0.00     0.171 C 
ATOM     24  H   UNL     1       0.196   0.049   0.189  1.00  0.00     0.163 HD
ATOM     25  H   UNL     1       1.874   3.779  -0.170  1.00  0.00     0.169 HD
ATOM     26  S   UNL     1       2.713   1.205   0.064  1.00  0.00    -0.041 S 
BRANCH  18  27
ATOM     27  C   UNL     1      -2.001   1.275   1.299  1.00  0.00     0.042 A 
ATOM     28  C   UNL     1      -2.535  -0.012   1.431  1.00  0.00     0.217 A 
ATOM     29  C   UNL     1      -2.138   2.175   2.314  1.00  0.00     0.022 A 
ATOM     30  N   UNL     1      -3.177  -0.384   2.517  1.00  0.00    -0.213 NA
ATOM     31  C   UNL     1      -2.831   1.772   3.473  1.00  0.00     0.001 A 
ATOM     32  C   UNL     1      -3.348   0.456   3.544  1.00  0.00     0.074 A 
ATOM     33  C   UNL     1      -3.014   2.648   4.554  1.00  0.00     0.010 A 
ATOM     34  C   UNL     1      -4.035   0.052   4.702  1.00  0.00     0.029 A 
ATOM     35  C   UNL     1      -3.685   2.222   5.660  1.00  0.00     0.001 A 
ATOM     36  C   UNL     1      -4.193   0.927   5.733  1.00  0.00     0.002 A 
BRANCH  28  37
ATOM     37  O   UNL     1      -2.387  -0.897   0.414  1.00  0.00    -0.493 OA
ATOM     38  H   UNL     1      -1.410  -0.956   0.261  1.00  0.00     0.295 HD
ENDBRANCH  28  37
ENDBRANCH  18  27
ENDBRANCH  14  17
ENDBRANCH   5  13
TORSDOF 7
