REMARK SMILES O=C(Nc1cc(O)n(-c2ccccc2)n1)c1cn(C[C@H]2CCC[N@@H+](Cc3cccs3)C2)c2ccccc12
REMARK SMILES IDX 16 1 17 2 18 3 32 4 37 5 36 6 35 7 34 8 33 9 2 10 3 11 1 13
REMARK SMILES IDX 4 14 8 15 15 16 6 17 5 18 9 19 12 20 13 21 11 22 14 23 10 24
REMARK SMILES IDX 7 25 19 27 20 28 31 29 21 30 24 31 22 32 23 33 25 35 26 36
REMARK SMILES IDX 30 37 27 38 29 39 28 40
REMARK H PARENT 3 12 7 26 24 34
REMARK Flexibility Score: inf
ROOT
ATOM      1  C   UNL     1      -0.018   1.465   0.010  1.00  0.00     0.065 A 
ATOM      2  C   UNL     1      -1.121   2.266   0.019  1.00  0.00     0.100 A 
ATOM      3  N   UNL     1      -0.743   3.567   0.028  1.00  0.00    -0.346 N 
ATOM      4  C   UNL     1       0.633   3.668   0.015  1.00  0.00     0.049 A 
ATOM      5  C   UNL     1       1.151   2.363   0.004  1.00  0.00     0.012 A 
ATOM      6  C   UNL     1       2.528   2.159  -0.010  1.00  0.00     0.011 A 
ATOM      7  C   UNL     1       3.379   3.243  -0.011  1.00  0.00     0.001 A 
ATOM      8  C   UNL     1       2.869   4.533   0.000  1.00  0.00     0.002 A 
ATOM      9  C   UNL     1       1.508   4.750   0.013  1.00  0.00     0.027 A 
ENDROOT
BRANCH   1  10
ATOM     10  C   UNL     1       0.002  -0.004   0.002  1.00  0.00     0.259 C 
ATOM     11  N   UNL     1      -1.156  -0.694   0.009  1.00  0.00    -0.305 N 
ATOM     12  H   UNL     1      -2.055  -0.191   0.021  1.00  0.00     0.171 HD
ATOM     13  O   UNL     1       1.064  -0.598  -0.011  1.00  0.00    -0.269 OA
BRANCH  11  14
ATOM     14  C   UNL     1      -1.137  -2.094   0.002  1.00  0.00     0.159 A 
ATOM     15  N   UNL     1      -1.751  -4.207  -0.004  1.00  0.00    -0.199 N 
ATOM     16  N   UNL     1      -2.190  -2.877   0.007  1.00  0.00    -0.147 NA
ATOM     17  C   UNL     1      -0.390  -4.198  -0.016  1.00  0.00     0.216 A 
ATOM     18  C   UNL     1       0.012  -2.900  -0.019  1.00  0.00     0.117 A 
BRANCH  15  19
ATOM     19  C   UNL     1      -2.567  -5.345  -0.003  1.00  0.00     0.069 A 
ATOM     20  C   UNL     1      -4.181  -7.592  -0.003  1.00  0.00     0.000 A 
ATOM     21  C   UNL     1      -2.988  -7.600  -0.701  1.00  0.00     0.002 A 
ATOM     22  C   UNL     1      -4.570  -6.464   0.696  1.00  0.00     0.002 A 
ATOM     23  C   UNL     1      -2.183  -6.478  -0.707  1.00  0.00     0.028 A 
ATOM     24  C   UNL     1      -3.767  -5.340   0.697  1.00  0.00     0.028 A 
ENDBRANCH  15  19
BRANCH  17  25
ATOM     25  O   UNL     1       0.418  -5.288  -0.030  1.00  0.00    -0.493 OA
ATOM     26  H   UNL     1       0.087  -5.786  -0.819  1.00  0.00     0.295 HD
ENDBRANCH  17  25
ENDBRANCH  11  14
ENDBRANCH   1  10
BRANCH   3  27
ATOM     27  C   UNL     1      -1.665   4.705   0.042  1.00  0.00     0.131 C 
BRANCH  27  28
ATOM     28  C   UNL     1      -1.901   5.188  -1.391  1.00  0.00     0.064 C 
ATOM     29  C   UNL     1      -2.765   6.451  -1.368  1.00  0.00     0.267 C 
ATOM     30  C   UNL     1      -2.622   4.096  -2.186  1.00  0.00     0.017 C 
ATOM     31  N   UNL     1      -2.984   6.908  -2.757  1.00  0.00    -0.330 N 
ATOM     32  C   UNL     1      -2.909   4.610  -3.599  1.00  0.00     0.062 C 
ATOM     33  C   UNL     1      -3.744   5.890  -3.513  1.00  0.00     0.262 C 
ATOM     34  H   UNL     1      -2.069   7.046  -3.211  1.00  0.00     0.348 HD
BRANCH  31  35
ATOM     35  C   UNL     1      -3.719   8.190  -2.757  1.00  0.00     0.310 C 
BRANCH  35  36
ATOM     36  C   UNL     1      -4.168   8.501  -4.161  1.00  0.00     0.059 A 
ATOM     37  S   UNL     1      -3.305   9.390  -5.447  1.00  0.00    -0.143 S 
ATOM     38  C   UNL     1      -5.330   8.174  -4.778  1.00  0.00     0.021 A 
ATOM     39  C   UNL     1      -4.554   9.272  -6.717  1.00  0.00     0.065 A 
ATOM     40  C   UNL     1      -5.530   8.573  -6.086  1.00  0.00     0.012 A 
ENDBRANCH  35  36
ENDBRANCH  31  35
ENDBRANCH  27  28
ENDBRANCH   3  27
TORSDOF 8
