REMARK SMILES O=C(COC(=O)c1c2c(nc3ccccc13)/C(=C/c1ccc(O)cc1)CC2)NNC(=O)c1cccs1
REMARK SMILES IDX 4 1 5 2 6 3 7 4 14 5 15 6 13 7 16 8 12 9 11 10 10 11 8 12
REMARK SMILES IDX 9 13 27 14 17 15 26 16 18 17 19 18 25 19 20 20 24 21 21 22
REMARK SMILES IDX 22 23 23 24 3 26 2 27 1 28 28 29 29 31 30 32 31 34 32 35
REMARK SMILES IDX 36 36 33 37 35 38 34 39
REMARK H PARENT 23 25 28 30 29 33
REMARK Flexibility Score: inf
ROOT
ATOM      1  O   UNL     1      -0.417  -3.287   1.468  1.00  0.00    -0.452 OA
ENDROOT
BRANCH   1   2
ATOM      2  C   UNL     1       0.080  -2.936   0.267  1.00  0.00     0.339 C 
ATOM      3  O   UNL     1      -0.478  -3.294  -0.750  1.00  0.00    -0.246 OA
BRANCH   2   4
ATOM      4  C   UNL     1       1.306  -2.114   0.186  1.00  0.00     0.074 A 
ATOM      5  C   UNL     1       0.007   1.391   0.185  1.00  0.00     0.001 A 
ATOM      6  C   UNL     1       0.020   0.027   0.211  1.00  0.00     0.011 A 
ATOM      7  C   UNL     1       1.195   2.114   0.108  1.00  0.00     0.002 A 
ATOM      8  C   UNL     1       1.240  -0.653   0.160  1.00  0.00     0.015 A 
ATOM      9  C   UNL     1       2.400   1.484   0.056  1.00  0.00     0.029 A 
ATOM     10  C   UNL     1       2.453   0.077   0.082  1.00  0.00     0.072 A 
ATOM     11  N   UNL     1       3.616  -0.567   0.032  1.00  0.00    -0.248 NA
ATOM     12  C   UNL     1       2.563  -2.700   0.132  1.00  0.00    -0.006 A 
ATOM     13  C   UNL     1       3.710  -1.893   0.055  1.00  0.00     0.071 A 
ATOM     14  C   UNL     1       2.963  -4.155   0.140  1.00  0.00     0.043 C 
ATOM     15  C   UNL     1       4.921  -2.735   0.009  1.00  0.00    -0.021 C 
ATOM     16  C   UNL     1       4.495  -4.181   0.060  1.00  0.00     0.042 C 
ATOM     17  C   UNL     1       6.188  -2.289  -0.067  1.00  0.00     0.014 C 
BRANCH  17  18
ATOM     18  C   UNL     1       7.309  -3.239   0.030  1.00  0.00    -0.025 A 
ATOM     19  C   UNL     1       7.065  -4.616   0.026  1.00  0.00     0.012 A 
ATOM     20  C   UNL     1       8.622  -2.766   0.121  1.00  0.00     0.012 A 
ATOM     21  C   UNL     1       8.118  -5.500   0.117  1.00  0.00     0.047 A 
ATOM     22  C   UNL     1       9.668  -3.658   0.216  1.00  0.00     0.047 A 
ATOM     23  C   UNL     1       9.420  -5.025   0.212  1.00  0.00     0.115 A 
BRANCH  23  24
ATOM     24  O   UNL     1      10.454  -5.901   0.300  1.00  0.00    -0.508 OA
ATOM     25  H   UNL     1      10.930  -5.652   1.132  1.00  0.00     0.293 HD
ENDBRANCH  23  24
ENDBRANCH  17  18
ENDBRANCH   2   4
ENDBRANCH   1   2
BRANCH   1  26
ATOM     26  C   UNL     1      -1.624  -4.094   1.471  1.00  0.00     0.334 C 
BRANCH  26  27
ATOM     27  C   UNL     1      -2.029  -4.386   2.893  1.00  0.00     0.276 C 
ATOM     28  O   UNL     1      -1.366  -3.957   3.813  1.00  0.00    -0.269 OA
ATOM     29  N   UNL     1      -3.128  -5.125   3.142  1.00  0.00    -0.264 N 
ATOM     30  H   UNL     1      -3.692  -5.491   2.361  1.00  0.00     0.191 HD
BRANCH  29  31
ATOM     31  N   UNL     1      -3.505  -5.397   4.464  1.00  0.00    -0.263 N 
ATOM     32  C   UNL     1      -4.604  -6.136   4.713  1.00  0.00     0.279 C 
ATOM     33  H   UNL     1      -2.942  -5.032   5.245  1.00  0.00     0.191 HD
ATOM     34  O   UNL     1      -5.269  -6.568   3.790  1.00  0.00    -0.266 OA
BRANCH  32  35
ATOM     35  C   UNL     1      -4.998  -6.420   6.096  1.00  0.00     0.094 A 
ATOM     36  S   UNL     1      -4.211  -5.916   7.616  1.00  0.00    -0.139 S 
ATOM     37  C   UNL     1      -6.082  -7.146   6.564  1.00  0.00     0.026 A 
ATOM     38  C   UNL     1      -5.304  -6.663   8.735  1.00  0.00     0.065 A 
ATOM     39  C   UNL     1      -6.217  -7.262   7.926  1.00  0.00     0.012 A 
ENDBRANCH  32  35
ENDBRANCH  29  31
ENDBRANCH  26  27
ENDBRANCH   1  26
TORSDOF 8
