REMARK SMILES CCOC(=O)C1=C(CSc2nc3c(cc2C#N)C[N@H+](C)CC3)OC(N)=C(C#N)[C@H]1c1ccc(Cl)cc1
REMARK SMILES IDX 6 1 7 2 23 3 24 4 26 5 29 6 4 7 5 8 3 9 2 10 1 11 30 12
REMARK SMILES IDX 36 13 31 14 35 15 32 16 33 17 34 18 8 19 9 20 10 21 11 22
REMARK SMILES IDX 15 23 12 24 14 25 13 26 22 27 18 28 21 29 19 30 20 31 16 33
REMARK SMILES IDX 17 34 27 35 28 36 25 37
REMARK H PARENT 19 32 25 38 25 39
REMARK Flexibility Score: inf
ROOT
ATOM      1  C   UNL     1      -0.748   6.595  -1.159  1.00  0.00     0.089 C 
ATOM      2  C   UNL     1      -1.776   7.426  -0.946  1.00  0.00     0.128 C 
ATOM      3  O   UNL     1      -2.488   7.410   0.190  1.00  0.00    -0.443 OA
ATOM      4  C   UNL     1      -1.966   6.832   1.287  1.00  0.00     0.205 C 
ATOM      5  C   UNL     1      -0.938   5.953   1.210  1.00  0.00     0.102 C 
ATOM      6  C   UNL     1      -0.335   5.588  -0.119  1.00  0.00     0.107 C 
ENDROOT
BRANCH   1   7
ATOM      7  C   UNL     1      -0.038   6.664  -2.382  1.00  0.00     0.338 C 
ATOM      8  O   UNL     1      -0.568   7.144  -3.367  1.00  0.00    -0.246 OA
BRANCH   7   9
ATOM      9  O   UNL     1       1.226   6.198  -2.456  1.00  0.00    -0.463 OA
BRANCH   9  10
ATOM     10  C   UNL     1       1.882   6.300  -3.721  1.00  0.00     0.230 C 
ATOM     11  C   UNL     1       3.296   5.725  -3.610  1.00  0.00     0.049 C 
ENDBRANCH   9  10
ENDBRANCH   7   9
ENDBRANCH   1   7
BRANCH   6  12
ATOM     12  C   UNL     1      -0.815   4.220  -0.529  1.00  0.00    -0.035 A 
ATOM     13  C   UNL     1      -2.167   3.983  -0.697  1.00  0.00     0.006 A 
ATOM     14  C   UNL     1       0.097   3.201  -0.735  1.00  0.00     0.006 A 
ATOM     15  C   UNL     1      -2.607   2.730  -1.079  1.00  0.00     0.021 A 
ATOM     16  C   UNL     1      -0.343   1.946  -1.111  1.00  0.00     0.021 A 
ATOM     17  C   UNL     1      -1.695   1.708  -1.280  1.00  0.00     0.041 A 
ATOM     18  Cl  UNL     1      -2.248   0.132  -1.752  1.00  0.00    -0.084 Cl
ENDBRANCH   6  12
BRANCH   2  19
ATOM     19  C   UNL     1      -2.145   8.416  -2.021  1.00  0.00     0.152 C 
BRANCH  19  20
ATOM     20  S   UNL     1      -3.635   7.849  -2.877  1.00  0.00    -0.097 SA
BRANCH  20  21
ATOM     21  C   UNL     1      -3.833   9.154  -4.045  1.00  0.00     0.115 A 
ATOM     22  N   UNL     1      -2.975  10.159  -4.061  1.00  0.00    -0.244 NA
ATOM     23  C   UNL     1      -4.907   9.126  -4.952  1.00  0.00     0.085 A 
ATOM     24  C   UNL     1      -3.074  11.162  -4.921  1.00  0.00     0.056 A 
ATOM     25  C   UNL     1      -5.035  10.174  -5.868  1.00  0.00     0.033 A 
ATOM     26  C   UNL     1      -4.099  11.199  -5.844  1.00  0.00     0.029 A 
ATOM     27  C   UNL     1      -2.039  12.258  -4.854  1.00  0.00     0.118 C 
ATOM     28  C   UNL     1      -4.239  12.319  -6.840  1.00  0.00     0.300 C 
ATOM     29  C   UNL     1      -2.058  13.075  -6.146  1.00  0.00     0.268 C 
ATOM     30  N   UNL     1      -3.446  13.479  -6.422  1.00  0.00    -0.333 N 
ATOM     31  C   UNL     1      -3.492  14.541  -7.437  1.00  0.00     0.333 C 
ATOM     32  H   UNL     1      -3.854  13.858  -5.556  1.00  0.00     0.348 HD
BRANCH  23  33
ATOM     33  C   UNL     1      -5.849   8.046  -4.939  1.00  0.00     0.102 C 
ATOM     34  N   UNL     1      -6.596   7.191  -4.929  1.00  0.00    -0.192 NA
ENDBRANCH  23  33
ENDBRANCH  20  21
ENDBRANCH  19  20
ENDBRANCH   2  19
BRANCH   5  35
ATOM     35  C   UNL     1      -0.420   5.364   2.408  1.00  0.00     0.101 C 
ATOM     36  N   UNL     1      -0.009   4.896   3.358  1.00  0.00    -0.193 NA
ENDBRANCH   5  35
BRANCH   4  37
ATOM     37  N   UNL     1      -2.489   7.143   2.518  1.00  0.00    -0.369 N 
ATOM     38  H   UNL     1      -3.270   7.809   2.603  1.00  0.00     0.159 HD
ATOM     39  H   UNL     1      -2.094   6.705   3.362  1.00  0.00     0.159 HD
ENDBRANCH   4  37
TORSDOF 10
