REMARK SMILES CC[NH+](CC)[C@@H](CNC(=O)Cc1csc(NC(=O)Cc2cccs2)n1)c1cccc(OC)c1
REMARK SMILES IDX 8 1 9 2 10 3 7 5 6 6 3 7 2 9 1 10 4 11 5 12 26 13 33 14
REMARK SMILES IDX 27 15 30 16 28 17 29 18 31 19 32 20 11 21 12 22 25 23 13 24
REMARK SMILES IDX 15 25 14 26 16 27 17 28 18 30 19 31 20 32 24 33 21 34 23 35
REMARK SMILES IDX 22 36
REMARK H PARENT 8 4 3 8 16 29
REMARK Flexibility Score: inf
ROOT
ATOM      1  N   UNL     1      -1.522   1.965   3.355  1.00  0.00    -0.349 N 
ATOM      2  C   UNL     1      -1.597   2.923   4.300  1.00  0.00     0.226 C 
ATOM      3  O   UNL     1      -2.437   3.794   4.215  1.00  0.00    -0.275 OA
ATOM      4  H   UNL     1      -0.861   1.183   3.466  1.00  0.00     0.163 HD
ENDROOT
BRANCH   1   5
ATOM      5  C   UNL     1      -2.379   2.037   2.169  1.00  0.00     0.186 C 
BRANCH   5   6
ATOM      6  C   UNL     1      -2.192   0.773   1.327  1.00  0.00     0.234 C 
BRANCH   6   7
ATOM      7  N   UNL     1      -0.768   0.605   1.006  1.00  0.00    -0.328 N 
ATOM      8  H   UNL     1      -0.254   0.496   1.892  1.00  0.00     0.348 HD
BRANCH   7   9
ATOM      9  C   UNL     1      -0.239   1.792   0.320  1.00  0.00     0.259 C 
ATOM     10  C   UNL     1       0.257   2.801   1.357  1.00  0.00     0.071 C 
ENDBRANCH   7   9
BRANCH   7  11
ATOM     11  C   UNL     1      -0.549  -0.607   0.206  1.00  0.00     0.259 C 
ATOM     12  C   UNL     1      -0.749  -1.843   1.085  1.00  0.00     0.071 C 
ENDBRANCH   7  11
ENDBRANCH   6   7
BRANCH   6  13
ATOM     13  C   UNL     1      -2.983   0.898   0.051  1.00  0.00     0.015 A 
ATOM     14  C   UNL     1      -3.692  -0.185  -0.430  1.00  0.00     0.056 A 
ATOM     15  C   UNL     1      -3.003   2.099  -0.635  1.00  0.00     0.010 A 
ATOM     16  C   UNL     1      -4.421  -0.070  -1.605  1.00  0.00     0.119 A 
ATOM     17  C   UNL     1      -3.724   2.215  -1.809  1.00  0.00     0.004 A 
ATOM     18  C   UNL     1      -4.435   1.134  -2.294  1.00  0.00     0.046 A 
BRANCH  16  19
ATOM     19  O   UNL     1      -5.120  -1.134  -2.080  1.00  0.00    -0.497 OA
ATOM     20  C   UNL     1      -5.847  -0.943  -3.296  1.00  0.00     0.278 C 
ENDBRANCH  16  19
ENDBRANCH   6  13
ENDBRANCH   5   6
ENDBRANCH   1   5
BRANCH   2  21
ATOM     21  C   UNL     1      -0.639   2.912   5.463  1.00  0.00     0.157 C 
BRANCH  21  22
ATOM     22  C   UNL     1      -1.009   4.007   6.429  1.00  0.00     0.063 A 
ATOM     23  N   UNL     1      -1.107   5.258   6.025  1.00  0.00    -0.224 NA
ATOM     24  C   UNL     1      -1.243   3.730   7.735  1.00  0.00     0.093 A 
ATOM     25  C   UNL     1      -1.435   6.223   6.863  1.00  0.00     0.189 A 
ATOM     26  S   UNL     1      -1.621   5.361   8.359  1.00  0.00    -0.105 S 
BRANCH  25  27
ATOM     27  N   UNL     1      -1.588   7.582   6.613  1.00  0.00    -0.302 N 
ATOM     28  C   UNL     1      -1.926   8.418   7.615  1.00  0.00     0.231 C 
ATOM     29  H   UNL     1      -1.443   7.950   5.662  1.00  0.00     0.172 HD
ATOM     30  O   UNL     1      -2.097   7.984   8.734  1.00  0.00    -0.274 OA
BRANCH  28  31
ATOM     31  C   UNL     1      -2.092   9.891   7.344  1.00  0.00     0.147 C 
BRANCH  31  32
ATOM     32  C   UNL     1      -2.468  10.597   8.621  1.00  0.00     0.014 A 
ATOM     33  S   UNL     1      -4.091  10.920   9.290  1.00  0.00    -0.148 S 
ATOM     34  C   UNL     1      -1.662  11.146   9.562  1.00  0.00     0.016 A 
ATOM     35  C   UNL     1      -3.586  11.772  10.775  1.00  0.00     0.065 A 
ATOM     36  C   UNL     1      -2.235  11.754  10.664  1.00  0.00     0.012 A 
ENDBRANCH  31  32
ENDBRANCH  28  31
ENDBRANCH  25  27
ENDBRANCH  21  22
ENDBRANCH   2  21
TORSDOF 12
