REMARK SMILES Nc1c(C(=O)NCc2cccs2)c2nc3ccccc3nc2n1/N=C/c1ccc(Cl)c(Cl)c1
REMARK SMILES IDX 17 1 18 2 19 3 20 4 15 5 16 6 14 7 13 8 3 9 2 10 23 11 22 12
REMARK SMILES IDX 21 13 4 14 5 15 6 16 7 18 8 19 12 20 9 21 11 22 10 23 24 24
REMARK SMILES IDX 25 25 26 26 33 27 27 28 31 29 28 30 29 31 32 32 30 33 1 34
REMARK H PARENT 6 17 1 35 1 36
REMARK Flexibility Score: inf
ROOT
ATOM      1  C   UNL     1      -8.041   6.345  -5.053  1.00  0.00     0.002 A 
ATOM      2  C   UNL     1      -6.890   5.694  -5.493  1.00  0.00     0.002 A 
ATOM      3  C   UNL     1      -5.990   5.187  -4.607  1.00  0.00     0.031 A 
ATOM      4  C   UNL     1      -6.219   5.317  -3.225  1.00  0.00     0.091 A 
ATOM      5  C   UNL     1      -7.389   5.979  -2.777  1.00  0.00     0.090 A 
ATOM      6  C   UNL     1      -8.296   6.491  -3.724  1.00  0.00     0.030 A 
ATOM      7  N   UNL     1      -7.631   6.117  -1.468  1.00  0.00    -0.242 NA
ATOM      8  C   UNL     1      -6.771   5.632  -0.594  1.00  0.00     0.125 A 
ATOM      9  C   UNL     1      -6.706   5.596   0.876  1.00  0.00     0.111 A 
ATOM     10  C   UNL     1      -5.532   4.926   1.203  1.00  0.00     0.142 A 
ATOM     11  N   UNL     1      -4.865   4.556   0.073  1.00  0.00    -0.196 N 
ATOM     12  C   UNL     1      -5.560   4.948  -1.055  1.00  0.00     0.183 A 
ATOM     13  N   UNL     1      -5.339   4.822  -2.346  1.00  0.00    -0.225 NA
ENDROOT
BRANCH   9  14
ATOM     14  C   UNL     1      -7.685   6.150   1.808  1.00  0.00     0.257 C 
ATOM     15  O   UNL     1      -8.612   5.462   2.197  1.00  0.00    -0.269 OA
ATOM     16  N   UNL     1      -7.563   7.421   2.238  1.00  0.00    -0.347 N 
ATOM     17  H   UNL     1      -6.779   8.003   1.909  1.00  0.00     0.164 HD
BRANCH  16  18
ATOM     18  C   UNL     1      -8.545   7.976   3.173  1.00  0.00     0.163 C 
BRANCH  18  19
ATOM     19  C   UNL     1      -8.182   9.404   3.493  1.00  0.00     0.024 A 
ATOM     20  S   UNL     1      -7.141  10.034   4.799  1.00  0.00    -0.147 S 
ATOM     21  C   UNL     1      -8.558  10.542   2.860  1.00  0.00     0.017 A 
ATOM     22  C   UNL     1      -7.283  11.772   4.417  1.00  0.00     0.065 A 
ATOM     23  C   UNL     1      -8.101  11.756   3.337  1.00  0.00     0.012 A 
ENDBRANCH  18  19
ENDBRANCH  16  18
ENDBRANCH   9  14
BRANCH  11  24
ATOM     24  N   UNL     1      -3.645   3.867   0.058  1.00  0.00    -0.172 NA
ATOM     25  C   UNL     1      -2.527   4.526   0.051  1.00  0.00     0.142 C 
BRANCH  25  26
ATOM     26  C   UNL     1      -1.243   3.801   0.034  1.00  0.00    -0.004 A 
ATOM     27  C   UNL     1      -1.227   2.404   0.021  1.00  0.00     0.031 A 
ATOM     28  C   UNL     1      -0.038   4.508   0.026  1.00  0.00     0.011 A 
ATOM     29  C   UNL     1      -0.021   1.732   0.012  1.00  0.00     0.060 A 
ATOM     30  C   UNL     1       1.159   3.825   0.011  1.00  0.00     0.023 A 
ATOM     31  C   UNL     1       1.170   2.440   0.004  1.00  0.00     0.059 A 
ATOM     32  Cl  UNL     1       0.002  -0.004   0.002  1.00  0.00    -0.083 Cl
ATOM     33  Cl  UNL     1       2.682   1.587  -0.015  1.00  0.00    -0.083 Cl
ENDBRANCH  25  26
ENDBRANCH  11  24
BRANCH  10  34
ATOM     34  N   UNL     1      -5.103   4.677   2.482  1.00  0.00    -0.383 N 
ATOM     35  H   UNL     1      -5.707   5.018   3.244  1.00  0.00     0.158 HD
ATOM     36  H   UNL     1      -4.226   4.177   2.683  1.00  0.00     0.158 HD
ENDBRANCH  10  34
TORSDOF 6
