REMARK SMILES Cc1c(S(=O)(=O)CCNC(=O)NCc2cccc3ccccc23)c2ccccc2n1Cc1ccccc1
REMARK SMILES IDX 7 1 4 2 5 3 6 4 3 5 1 6 2 7 30 8 29 9 24 10 28 11 25 12
REMARK SMILES IDX 27 13 26 14 31 15 32 16 37 17 33 18 36 19 34 20 35 21 8 22
REMARK SMILES IDX 9 23 10 24 11 26 12 27 13 29 14 30 23 31 15 32 18 33 22 34
REMARK SMILES IDX 16 35 17 36 19 37 21 38 20 39
REMARK H PARENT 9 25 12 28
REMARK Flexibility Score: inf
ROOT
ATOM      1  C   UNL     1       4.371   3.870  -1.772  1.00  0.00     0.163 C 
ENDROOT
BRANCH   1   2
ATOM      2  S   UNL     1       3.928   3.931  -0.015  1.00  0.00     0.182 S 
ATOM      3  O   UNL     1       4.479   5.093   0.590  1.00  0.00    -0.224 OA
ATOM      4  O   UNL     1       4.105   2.652   0.579  1.00  0.00    -0.224 OA
BRANCH   2   5
ATOM      5  C   UNL     1       2.186   4.198   0.004  1.00  0.00     0.095 A 
ATOM      6  C   UNL     1       2.249   6.726   0.019  1.00  0.00     0.066 C 
ATOM      7  C   UNL     1       1.560   5.385   0.017  1.00  0.00     0.035 A 
ATOM      8  N   UNL     1       0.205   5.198   0.029  1.00  0.00    -0.339 N 
ATOM      9  C   UNL     1      -0.082   3.852   0.024  1.00  0.00     0.050 A 
ATOM     10  C   UNL     1       1.146   3.166   0.008  1.00  0.00     0.019 A 
ATOM     11  C   UNL     1      -1.268   3.125   0.031  1.00  0.00     0.027 A 
ATOM     12  C   UNL     1       1.164   1.770   0.000  1.00  0.00     0.012 A 
ATOM     13  C   UNL     1      -1.227   1.748   0.017  1.00  0.00     0.002 A 
ATOM     14  C   UNL     1      -0.013   1.076   0.008  1.00  0.00     0.001 A 
BRANCH   8  15
ATOM     15  C   UNL     1      -0.793   6.271   0.043  1.00  0.00     0.158 C 
BRANCH  15  16
ATOM     16  C   UNL     1      -1.148   6.646  -1.372  1.00  0.00    -0.028 A 
ATOM     17  C   UNL     1      -2.188   6.003  -2.017  1.00  0.00     0.005 A 
ATOM     18  C   UNL     1      -0.438   7.638  -2.023  1.00  0.00     0.005 A 
ATOM     19  C   UNL     1      -2.514   6.348  -3.316  1.00  0.00     0.000 A 
ATOM     20  C   UNL     1      -0.761   7.979  -3.323  1.00  0.00     0.000 A 
ATOM     21  C   UNL     1      -1.800   7.336  -3.969  1.00  0.00     0.000 A 
ENDBRANCH  15  16
ENDBRANCH   8  15
ENDBRANCH   2   5
ENDBRANCH   1   2
BRANCH   1  22
ATOM     22  C   UNL     1       5.877   3.639  -1.911  1.00  0.00     0.134 C 
BRANCH  22  23
ATOM     23  N   UNL     1       6.235   3.590  -3.331  1.00  0.00    -0.337 N 
ATOM     24  C   UNL     1       7.518   3.395  -3.696  1.00  0.00     0.315 C 
ATOM     25  H   UNL     1       5.507   3.705  -4.050  1.00  0.00     0.165 HD
ATOM     26  O   UNL     1       8.378   3.260  -2.847  1.00  0.00    -0.249 OA
ATOM     27  N   UNL     1       7.847   3.350  -5.002  1.00  0.00    -0.334 N 
ATOM     28  H   UNL     1       7.119   3.465  -5.721  1.00  0.00     0.165 HD
BRANCH  27  29
ATOM     29  C   UNL     1       9.241   3.138  -5.399  1.00  0.00     0.154 C 
BRANCH  29  30
ATOM     30  C   UNL     1       9.340   3.129  -6.902  1.00  0.00    -0.021 A 
ATOM     31  C   UNL     1       9.353   4.339  -7.616  1.00  0.00    -0.013 A 
ATOM     32  C   UNL     1       9.410   1.949  -7.577  1.00  0.00     0.006 A 
ATOM     33  C   UNL     1       9.451   4.311  -9.030  1.00  0.00    -0.018 A 
ATOM     34  C   UNL     1       9.286   5.578  -6.955  1.00  0.00     0.009 A 
ATOM     35  C   UNL     1       9.502   1.921  -8.967  1.00  0.00     0.001 A 
ATOM     36  C   UNL     1       9.523   3.073  -9.691  1.00  0.00     0.009 A 
ATOM     37  C   UNL     1       9.471   5.521  -9.744  1.00  0.00     0.009 A 
ATOM     38  C   UNL     1       9.308   6.730  -7.679  1.00  0.00     0.001 A 
ATOM     39  C   UNL     1       9.400   6.702  -9.070  1.00  0.00     0.001 A 
ENDBRANCH  29  30
ENDBRANCH  27  29
ENDBRANCH  22  23
ENDBRANCH   1  22
TORSDOF 8
