REMARK SMILES CCOC(=O)c1[nH]c2ccc(Br)cc2c1NC(=O)CC[N@@H+]1C[C@@]2(C)C[C@@H]1CC(C)(C)C2
REMARK SMILES IDX 6 1 15 2 14 3 13 4 11 5 10 6 9 7 8 8 7 9 12 10 4 12 5 13
REMARK SMILES IDX 3 14 2 15 1 16 16 17 17 18 18 20 19 21 20 22 21 23 22 24
REMARK SMILES IDX 26 25 23 27 25 28 27 29 31 30 24 31 28 32 29 33 30 34
REMARK H PARENT 7 11 16 19 21 26
REMARK Flexibility Score: inf
ROOT
ATOM      1  C   UNL     1       3.753   9.557  -2.657  1.00  0.00     0.149 A 
ATOM      2  C   UNL     1       3.390   8.266  -2.332  1.00  0.00     0.082 A 
ATOM      3  C   UNL     1       4.255   7.378  -3.112  1.00  0.00     0.025 A 
ATOM      4  C   UNL     1       4.360   5.988  -3.220  1.00  0.00     0.028 A 
ATOM      5  C   UNL     1       5.286   5.441  -4.062  1.00  0.00     0.018 A 
ATOM      6  C   UNL     1       6.121   6.255  -4.818  1.00  0.00     0.018 A 
ATOM      7  C   UNL     1       6.031   7.626  -4.732  1.00  0.00     0.028 A 
ATOM      8  C   UNL     1       5.094   8.207  -3.879  1.00  0.00     0.048 A 
ATOM      9  N   UNL     1       4.779   9.514  -3.589  1.00  0.00    -0.347 N 
ATOM     10  Br  UNL     1       5.432   3.560  -4.202  1.00  0.00    -0.051 Br
ATOM     11  H   UNL     1       5.238  10.339  -4.002  1.00  0.00     0.167 HD
ENDROOT
BRANCH   1  12
ATOM     12  C   UNL     1       3.172  10.736  -2.124  1.00  0.00     0.356 C 
ATOM     13  O   UNL     1       2.179  10.662  -1.425  1.00  0.00    -0.244 OA
BRANCH  12  14
ATOM     14  O   UNL     1       3.720  11.939  -2.393  1.00  0.00    -0.461 OA
BRANCH  14  15
ATOM     15  C   UNL     1       3.082  13.084  -1.824  1.00  0.00     0.230 C 
ATOM     16  C   UNL     1       3.840  14.348  -2.236  1.00  0.00     0.049 C 
ENDBRANCH  14  15
ENDBRANCH  12  14
ENDBRANCH   1  12
BRANCH   2  17
ATOM     17  N   UNL     1       2.400   7.883  -1.433  1.00  0.00    -0.323 N 
ATOM     18  C   UNL     1       1.338   7.172  -1.863  1.00  0.00     0.230 C 
ATOM     19  H   UNL     1       2.478   8.142  -0.439  1.00  0.00     0.170 HD
ATOM     20  O   UNL     1       1.184   6.970  -3.049  1.00  0.00    -0.275 OA
BRANCH  18  21
ATOM     21  C   UNL     1       0.343   6.629  -0.870  1.00  0.00     0.161 C 
BRANCH  21  22
ATOM     22  C   UNL     1      -0.756   5.867  -1.614  1.00  0.00     0.272 C 
BRANCH  22  23
ATOM     23  N   UNL     1      -1.744   5.368  -0.599  1.00  0.00    -0.332 N 
ATOM     24  C   UNL     1      -1.156   4.348   0.268  1.00  0.00     0.269 C 
ATOM     25  C   UNL     1      -2.948   4.785  -1.231  1.00  0.00     0.185 C 
ATOM     26  H   UNL     1      -2.013   6.194  -0.044  1.00  0.00     0.348 HD
ATOM     27  C   UNL     1      -2.248   3.265   0.450  1.00  0.00     0.023 C 
ATOM     28  C   UNL     1      -3.542   3.961  -0.053  1.00  0.00     0.077 C 
ATOM     29  C   UNL     1      -2.661   3.812  -2.362  1.00  0.00     0.071 C 
ATOM     30  C   UNL     1      -1.952   2.123  -0.521  1.00  0.00     0.019 C 
ATOM     31  C   UNL     1      -2.364   2.794   1.907  1.00  0.00     0.017 C 
ATOM     32  C   UNL     1      -1.997   2.506  -1.985  1.00  0.00    -0.029 C 
ATOM     33  C   UNL     1      -2.756   1.376  -2.728  1.00  0.00     0.011 C 
ATOM     34  C   UNL     1      -0.561   2.491  -2.547  1.00  0.00     0.011 C 
ENDBRANCH  22  23
ENDBRANCH  21  22
ENDBRANCH  18  21
ENDBRANCH   2  17
TORSDOF 7
