REMARK SMILES Cc1c(C(=O)Nc2ccc3[nH]c4c(c3c2)CCCC4)cnn1-c1ccc(O)nn1
REMARK SMILES IDX 1 1 2 2 3 3 20 4 21 5 22 6 23 7 29 8 24 9 28 10 25 11 26 12
REMARK SMILES IDX 27 13 4 15 5 16 6 17 7 19 15 20 8 21 14 22 9 23 10 24 13 25
REMARK SMILES IDX 11 26 16 27 12 28 17 30 19 31 18 32
REMARK H PARENT 27 14 6 18 11 29
REMARK Flexibility Score: inf
ROOT
ATOM      1  C   UNL     1      -8.396   1.189  -4.847  1.00  0.00     0.068 C 
ATOM      2  C   UNL     1      -9.287   0.370  -3.951  1.00  0.00     0.056 A 
ATOM      3  C   UNL     1      -9.003  -0.032  -2.661  1.00  0.00     0.081 A 
ATOM      4  C   UNL     1     -10.116  -0.771  -2.199  1.00  0.00     0.149 A 
ATOM      5  N   UNL     1     -11.002  -0.809  -3.156  1.00  0.00    -0.174 NA
ATOM      6  N   UNL     1     -10.507  -0.108  -4.261  1.00  0.00    -0.217 N 
ENDROOT
BRANCH   6   7
ATOM      7  C   UNL     1     -11.170   0.071  -5.481  1.00  0.00     0.176 A 
ATOM      8  N   UNL     1     -10.594   0.751  -6.441  1.00  0.00    -0.127 NA
ATOM      9  C   UNL     1     -12.449  -0.486  -5.669  1.00  0.00     0.057 A 
ATOM     10  N   UNL     1     -11.238   0.942  -7.669  1.00  0.00    -0.110 NA
ATOM     11  C   UNL     1     -13.095  -0.308  -6.853  1.00  0.00     0.074 A 
ATOM     12  C   UNL     1     -12.465   0.426  -7.879  1.00  0.00     0.231 A 
BRANCH  12  13
ATOM     13  O   UNL     1     -13.027   0.593  -8.949  1.00  0.00    -0.492 OA
ATOM     14  H   UNL     1     -13.891   1.016  -8.715  1.00  0.00     0.295 HD
ENDBRANCH  12  13
ENDBRANCH   6   7
BRANCH   3  15
ATOM     15  C   UNL     1      -7.772   0.260  -1.905  1.00  0.00     0.259 C 
ATOM     16  O   UNL     1      -6.882   0.910  -2.420  1.00  0.00    -0.269 OA
ATOM     17  N   UNL     1      -7.632  -0.195  -0.644  1.00  0.00    -0.322 N 
ATOM     18  H   UNL     1      -8.353  -0.804  -0.233  1.00  0.00     0.170 HD
BRANCH  17  19
ATOM     19  C   UNL     1      -6.505   0.163   0.108  1.00  0.00     0.042 A 
ATOM     20  C   UNL     1      -5.281   0.304  -0.534  1.00  0.00     0.036 A 
ATOM     21  C   UNL     1      -6.641   0.365   1.477  1.00  0.00     0.028 A 
ATOM     22  C   UNL     1      -4.190   0.661   0.264  1.00  0.00     0.005 A 
ATOM     23  C   UNL     1      -5.572   0.718   2.280  1.00  0.00     0.029 A 
ATOM     24  C   UNL     1      -4.333   0.866   1.660  1.00  0.00     0.046 A 
ATOM     25  C   UNL     1      -2.792   0.895  -0.034  1.00  0.00    -0.019 A 
ATOM     26  N   UNL     1      -3.101   1.199   2.150  1.00  0.00    -0.358 N 
ATOM     27  C   UNL     1      -2.090   0.815  -1.366  1.00  0.00     0.038 C 
ATOM     28  C   UNL     1      -2.185   1.212   1.131  1.00  0.00     0.019 A 
ATOM     29  H   UNL     1      -2.892   1.408   3.136  1.00  0.00     0.166 HD
ATOM     30  C   UNL     1      -0.739   1.531  -1.250  1.00  0.00     0.005 C 
ATOM     31  C   UNL     1      -0.712   1.526   1.251  1.00  0.00     0.054 C 
ATOM     32  C   UNL     1      -0.001   1.021  -0.009  1.00  0.00     0.007 C 
ENDBRANCH  17  19
ENDBRANCH   3  15
TORSDOF 4
