REMARK SMILES O=c1c2c3c(sc2ncn1CCn1ccnc1)C[C@@H]([NH2+]Cc1ccccc1OC(F)(F)F)CC3
REMARK SMILES IDX 20 1 21 4 22 5 24 6 23 7 25 8 26 9 27 10 28 11 29 12 30 13
REMARK SMILES IDX 31 14 32 15 19 16 18 17 33 18 5 19 34 20 4 21 6 22 3 23 7 24
REMARK SMILES IDX 2 25 8 26 1 27 10 28 9 29 11 30 12 31 13 32 17 33 14 34
REMARK SMILES IDX 16 35 15 36
REMARK H PARENT 20 2 20 3
REMARK Flexibility Score: inf
ROOT
ATOM      1  N   UNL     1       0.139   5.846  -1.340  1.00  0.00    -0.340 N 
ATOM      2  H   UNL     1       1.052   5.512  -1.680  1.00  0.00     0.346 HD
ATOM      3  H   UNL     1      -0.603   5.486  -1.957  1.00  0.00     0.346 HD
ENDROOT
BRANCH   1   4
ATOM      4  C   UNL     1      -0.082   5.350   0.032  1.00  0.00     0.301 C 
BRANCH   4   5
ATOM      5  C   UNL     1      -0.057   3.844   0.023  1.00  0.00     0.049 A 
ATOM      6  C   UNL     1      -1.220   1.750   0.017  1.00  0.00     0.001 A 
ATOM      7  C   UNL     1      -1.242   3.132   0.031  1.00  0.00     0.013 A 
ATOM      8  C   UNL     1      -0.013   1.076   0.008  1.00  0.00     0.004 A 
ATOM      9  C   UNL     1       1.174   1.782   0.000  1.00  0.00     0.047 A 
ATOM     10  C   UNL     1       1.155   3.169   0.008  1.00  0.00     0.138 A 
BRANCH  10  11
ATOM     11  O   UNL     1       2.321   3.867   0.000  1.00  0.00    -0.405 OA
BRANCH  11  12
ATOM     12  C   UNL     1       3.531   3.107  -0.016  1.00  0.00     0.573 C 
ATOM     13  F   UNL     1       3.564   2.306  -1.163  1.00  0.00    -0.132 F 
ATOM     14  F   UNL     1       4.628   3.975  -0.022  1.00  0.00    -0.132 F 
ATOM     15  F   UNL     1       3.587   2.294   1.122  1.00  0.00    -0.132 F 
ENDBRANCH  11  12
ENDBRANCH  10  11
ENDBRANCH   4   5
ENDBRANCH   1   4
BRANCH   1  16
ATOM     16  C   UNL     1       0.120   7.320  -1.361  1.00  0.00     0.188 C 
ATOM     17  C   UNL     1      -1.326   7.815  -1.505  1.00  0.00     0.112 C 
ATOM     18  C   UNL     1       0.930   7.820  -2.561  1.00  0.00     0.070 C 
ATOM     19  C   UNL     1      -1.298   9.274  -1.842  1.00  0.00     0.017 A 
ATOM     20  C   UNL     1       1.126   9.332  -2.462  1.00  0.00     0.044 C 
ATOM     21  C   UNL     1      -0.235   9.996  -2.270  1.00  0.00    -0.018 A 
ATOM     22  S   UNL     1      -2.643  10.429  -1.766  1.00  0.00    -0.120 S 
ATOM     23  C   UNL     1      -0.468  11.405  -2.530  1.00  0.00     0.080 A 
ATOM     24  C   UNL     1      -1.782  11.871  -2.307  1.00  0.00     0.131 A 
ATOM     25  C   UNL     1       0.496  12.366  -2.986  1.00  0.00     0.262 A 
ATOM     26  N   UNL     1      -2.163  13.131  -2.495  1.00  0.00    -0.227 NA
ATOM     27  O   UNL     1       1.656  12.066  -3.208  1.00  0.00    -0.269 OA
ATOM     28  N   UNL     1       0.033  13.627  -3.155  1.00  0.00    -0.297 N 
ATOM     29  C   UNL     1      -1.252  13.982  -2.914  1.00  0.00     0.204 A 
BRANCH  28  30
ATOM     30  C   UNL     1       0.966  14.657  -3.618  1.00  0.00     0.149 C 
BRANCH  30  31
ATOM     31  C   UNL     1       1.632  15.323  -2.412  1.00  0.00     0.145 C 
BRANCH  31  32
ATOM     32  N   UNL     1       2.565  16.353  -2.876  1.00  0.00    -0.336 N 
ATOM     33  C   UNL     1       3.874  16.180  -3.157  1.00  0.00     0.199 A 
ATOM     34  C   UNL     1       2.274  17.672  -3.099  1.00  0.00     0.107 A 
ATOM     35  N   UNL     1       4.374  17.322  -3.544  1.00  0.00    -0.245 NA
ATOM     36  C   UNL     1       3.413  18.257  -3.514  1.00  0.00     0.130 A 
ENDBRANCH  31  32
ENDBRANCH  30  31
ENDBRANCH  28  30
ENDBRANCH   1  16
TORSDOF 8
