REMARK SMILES Cc1ccc(-n2cnn(CN3CCN([C@@H](C(N)=O)c4ccc(Cl)cc4)CC3)c2=S)c(C)c1
REMARK SMILES IDX 11 1 12 2 13 3 14 4 26 5 27 6 10 7 9 8 6 9 28 10 7 11 29 12
REMARK SMILES IDX 8 13 5 14 1 15 2 16 32 17 3 18 30 19 4 20 31 21 15 22 19 23
REMARK SMILES IDX 25 24 20 25 24 26 21 27 22 28 23 29 16 30 18 31 17 32
REMARK H PARENT 17 33 17 34
REMARK Flexibility Score: inf
ROOT
ATOM      1  N   UNL     1      -4.786  -0.258   1.043  1.00  0.00    -0.282 NA
ATOM      2  C   UNL     1      -3.486  -0.939   1.124  1.00  0.00     0.102 C 
ATOM      3  C   UNL     1      -2.370   0.105   1.202  1.00  0.00     0.101 C 
ATOM      4  N   UNL     1      -2.433   0.975   0.019  1.00  0.00    -0.286 NA
ATOM      5  C   UNL     1      -3.733   1.656  -0.062  1.00  0.00     0.101 C 
ATOM      6  C   UNL     1      -4.849   0.612  -0.140  1.00  0.00     0.102 C 
ENDROOT
BRANCH   1   7
ATOM      7  C   UNL     1      -5.890  -1.228   1.043  1.00  0.00     0.234 C 
BRANCH   7   8
ATOM      8  N   UNL     1      -7.143  -0.540   0.724  1.00  0.00    -0.223 N 
ATOM      9  N   UNL     1      -9.018   0.546   0.903  1.00  0.00    -0.274 N 
ATOM     10  C   UNL     1      -7.997   0.019   1.607  1.00  0.00     0.203 A 
ATOM     11  C   UNL     1      -8.796   0.299  -0.432  1.00  0.00     0.229 A 
ATOM     12  S   UNL     1      -7.813   0.056   3.309  1.00  0.00    -0.038 S 
ATOM     13  N   UNL     1      -7.682  -0.348  -0.556  1.00  0.00    -0.159 NA
BRANCH   9  14
ATOM     14  C   UNL     1     -10.121   1.223   1.439  1.00  0.00     0.052 A 
ATOM     15  C   UNL     1     -13.485   3.289   3.077  1.00  0.00     0.044 C 
ATOM     16  C   UNL     1     -12.299   2.561   2.499  1.00  0.00    -0.051 A 
ATOM     17  C   UNL     1     -11.032   3.102   2.618  1.00  0.00     0.009 A 
ATOM     18  C   UNL     1     -12.480   1.352   1.852  1.00  0.00     0.005 A 
ATOM     19  C   UNL     1      -9.942   2.434   2.094  1.00  0.00    -0.027 A 
ATOM     20  C   UNL     1     -11.395   0.682   1.322  1.00  0.00     0.027 A 
ATOM     21  C   UNL     1      -8.561   3.022   2.229  1.00  0.00     0.046 C 
ENDBRANCH   9  14
ENDBRANCH   7   8
ENDBRANCH   1   7
BRANCH   4  22
ATOM     22  C   UNL     1      -1.330   1.944   0.019  1.00  0.00     0.177 C 
BRANCH  22  23
ATOM     23  C   UNL     1      -1.427   2.816  -1.206  1.00  0.00    -0.021 A 
ATOM     24  C   UNL     1      -1.158   4.169  -1.115  1.00  0.00     0.007 A 
ATOM     25  C   UNL     1      -1.780   2.262  -2.423  1.00  0.00     0.007 A 
ATOM     26  C   UNL     1      -1.247   4.969  -2.238  1.00  0.00     0.021 A 
ATOM     27  C   UNL     1      -1.875   3.062  -3.546  1.00  0.00     0.021 A 
ATOM     28  C   UNL     1      -1.606   4.416  -3.455  1.00  0.00     0.041 A 
ATOM     29  Cl  UNL     1      -1.717   5.420  -4.866  1.00  0.00    -0.084 Cl
ENDBRANCH  22  23
BRANCH  22  30
ATOM     30  C   UNL     1      -0.014   1.209   0.009  1.00  0.00     0.239 C 
ATOM     31  O   UNL     1       0.002  -0.004   0.002  1.00  0.00    -0.273 OA
ATOM     32  N   UNL     1       1.143   1.898   0.001  1.00  0.00    -0.368 N 
ATOM     33  H   UNL     1       1.129   2.928   0.003  1.00  0.00     0.159 HD
ATOM     34  H   UNL     1       2.042   1.395  -0.006  1.00  0.00     0.159 HD
ENDBRANCH  22  30
ENDBRANCH   4  22
TORSDOF 6
