REMARK SMILES CC1(C)SC(=S)N(/N=C/c2cc(Br)ccc2O)[C@@H]1N(O)C(=O)NC1CCCCC1
REMARK SMILES IDX 1 1 2 2 18 3 7 4 5 5 6 6 4 7 3 8 19 9 21 10 22 11 23 12
REMARK SMILES IDX 24 14 29 15 25 16 28 17 26 18 27 19 20 20 8 22 9 23 10 24
REMARK SMILES IDX 16 25 11 26 15 27 12 28 14 29 13 30 17 31
REMARK H PARENT 23 13 20 21 17 32
REMARK Flexibility Score: inf
ROOT
ATOM      1  C   UNL     1       5.590   0.268   5.833  1.00  0.00     0.028 C 
ATOM      2  C   UNL     1       6.628  -0.527   5.039  1.00  0.00     0.061 C 
ATOM      3  C   UNL     1       6.245  -0.607   3.547  1.00  0.00     0.252 C 
ATOM      4  N   UNL     1       7.213   0.017   2.675  1.00  0.00    -0.222 N 
ATOM      5  C   UNL     1       8.316   0.594   3.173  1.00  0.00     0.159 C 
ATOM      6  S   UNL     1       9.560   1.375   2.293  1.00  0.00    -0.051 S 
ATOM      7  S   UNL     1       8.219   0.379   4.938  1.00  0.00    -0.084 SA
ATOM      8  C   UNL     1       6.824  -1.923   5.634  1.00  0.00     0.028 C 
ENDROOT
BRANCH   3   9
ATOM      9  N   UNL     1       4.949   0.048   3.358  1.00  0.00    -0.179 N 
BRANCH   9  10
ATOM     10  C   UNL     1       3.835  -0.498   3.883  1.00  0.00     0.343 C 
ATOM     11  O   UNL     1       3.890  -1.580   4.435  1.00  0.00    -0.246 OA
ATOM     12  N   UNL     1       2.659   0.155   3.796  1.00  0.00    -0.333 N 
ATOM     13  H   UNL     1       2.612   1.071   3.328  1.00  0.00     0.165 HD
BRANCH  12  14
ATOM     14  C   UNL     1       1.447  -0.439   4.367  1.00  0.00     0.084 C 
ATOM     15  C   UNL     1       0.822  -1.398   3.352  1.00  0.00     0.025 C 
ATOM     16  C   UNL     1       0.447   0.668   4.705  1.00  0.00     0.025 C 
ATOM     17  C   UNL     1      -0.443  -2.018   3.948  1.00  0.00     0.002 C 
ATOM     18  C   UNL     1      -0.818   0.048   5.301  1.00  0.00     0.002 C 
ATOM     19  C   UNL     1      -1.443  -0.911   4.286  1.00  0.00     0.000 C 
ENDBRANCH  12  14
ENDBRANCH   9  10
BRANCH   9  20
ATOM     20  O   UNL     1       4.867   1.256   2.623  1.00  0.00    -0.282 OA
ATOM     21  H   UNL     1       5.266   1.044   1.742  1.00  0.00     0.246 HD
ENDBRANCH   9  20
ENDBRANCH   3   9
BRANCH   4  22
ATOM     22  N   UNL     1       6.996   0.020   1.291  1.00  0.00    -0.177 NA
ATOM     23  C   UNL     1       5.988  -0.626   0.791  1.00  0.00     0.145 C 
BRANCH  23  24
ATOM     24  C   UNL     1       5.794  -0.674  -0.670  1.00  0.00     0.037 A 
ATOM     25  C   UNL     1       6.696  -0.023  -1.522  1.00  0.00     0.124 A 
ATOM     26  C   UNL     1       4.713  -1.373  -1.212  1.00  0.00     0.029 A 
ATOM     27  C   UNL     1       6.505  -0.074  -2.893  1.00  0.00     0.048 A 
ATOM     28  C   UNL     1       4.535  -1.411  -2.580  1.00  0.00     0.018 A 
ATOM     29  C   UNL     1       5.430  -0.765  -3.418  1.00  0.00     0.019 A 
ATOM     30  Br  UNL     1       3.068  -2.352  -3.314  1.00  0.00    -0.051 Br
BRANCH  25  31
ATOM     31  O   UNL     1       7.753   0.656  -1.005  1.00  0.00    -0.507 OA
ATOM     32  H   UNL     1       8.237  -0.010  -0.455  1.00  0.00     0.293 HD
ENDBRANCH  25  31
ENDBRANCH  23  24
ENDBRANCH   4  22
TORSDOF 7
