REMARK SMILES CCOc1ccc(C2=N[C@@H](c3ccc(F)c(Br)c3)N[C@@H](c3cccc(OCC)c3O)C2)cc1
REMARK SMILES IDX 8 1 9 2 10 3 19 4 20 5 31 6 7 8 4 9 33 10 5 11 32 12 6 13
REMARK SMILES IDX 3 14 2 15 1 16 21 17 29 18 22 19 25 20 23 21 24 22 30 23
REMARK SMILES IDX 26 25 27 26 28 27 11 28 18 29 12 30 16 31 13 32 14 33 17 34
REMARK SMILES IDX 15 35
REMARK H PARENT 19 7 30 24
REMARK Flexibility Score: inf
ROOT
ATOM      1  C   UNL     1       1.170   3.561   0.009  1.00  0.00     0.046 C 
ATOM      2  N   UNL     1       0.038   4.159   0.023  1.00  0.00    -0.265 NA
ATOM      3  C   UNL     1      -0.121   5.608   0.022  1.00  0.00     0.204 C 
ATOM      4  N   UNL     1       1.128   6.267   0.423  1.00  0.00    -0.285 NA
ATOM      5  C   UNL     1       2.253   5.756  -0.379  1.00  0.00     0.096 C 
ATOM      6  C   UNL     1       2.485   4.290   0.007  1.00  0.00     0.080 C 
ATOM      7  H   UNL     1       1.040   7.283   0.279  1.00  0.00     0.125 HD
ENDROOT
BRANCH   1   8
ATOM      8  C   UNL     1       1.185   2.086   0.002  1.00  0.00    -0.004 A 
ATOM      9  C   UNL     1       1.214  -0.684  -0.013  1.00  0.00     0.119 A 
ATOM     10  C   UNL     1       2.411   0.021  -0.020  1.00  0.00     0.047 A 
ATOM     11  C   UNL     1       0.002  -0.004   0.002  1.00  0.00     0.047 A 
ATOM     12  C   UNL     1       2.401   1.398  -0.013  1.00  0.00     0.014 A 
ATOM     13  C   UNL     1      -0.017   1.373   0.010  1.00  0.00     0.014 A 
BRANCH   9  14
ATOM     14  O   UNL     1       1.228  -2.042  -0.019  1.00  0.00    -0.494 OA
BRANCH  14  15
ATOM     15  C   UNL     1       2.507  -2.678  -0.035  1.00  0.00     0.226 C 
ATOM     16  C   UNL     1       2.322  -4.196  -0.040  1.00  0.00     0.049 C 
ENDBRANCH  14  15
ENDBRANCH   9  14
ENDBRANCH   1   8
BRANCH   5  17
ATOM     17  C   UNL     1       3.493   6.561  -0.086  1.00  0.00     0.015 A 
ATOM     18  C   UNL     1       4.506   6.638  -1.027  1.00  0.00     0.162 A 
ATOM     19  C   UNL     1       3.621   7.217   1.125  1.00  0.00     0.009 A 
ATOM     20  C   UNL     1       5.648   7.388  -0.756  1.00  0.00     0.161 A 
ATOM     21  C   UNL     1       4.757   7.955   1.396  1.00  0.00     0.004 A 
ATOM     22  C   UNL     1       5.770   8.042   0.459  1.00  0.00     0.050 A 
BRANCH  18  23
ATOM     23  O   UNL     1       4.384   5.989  -2.216  1.00  0.00    -0.504 OA
ATOM     24  H   UNL     1       3.541   6.331  -2.607  1.00  0.00     0.293 HD
ENDBRANCH  18  23
BRANCH  20  25
ATOM     25  O   UNL     1       6.643   7.472  -1.679  1.00  0.00    -0.490 OA
BRANCH  25  26
ATOM     26  C   UNL     1       7.787   8.253  -1.329  1.00  0.00     0.226 C 
ATOM     27  C   UNL     1       8.792   8.231  -2.483  1.00  0.00     0.049 C 
ENDBRANCH  25  26
ENDBRANCH  20  25
ENDBRANCH   5  17
BRANCH   3  28
ATOM     28  C   UNL     1      -1.215   5.988   0.987  1.00  0.00    -0.008 A 
ATOM     29  C   UNL     1      -2.262   5.117   1.221  1.00  0.00     0.026 A 
ATOM     30  C   UNL     1      -1.167   7.205   1.641  1.00  0.00     0.010 A 
ATOM     31  C   UNL     1      -3.266   5.465   2.106  1.00  0.00     0.054 A 
ATOM     32  C   UNL     1      -2.172   7.558   2.521  1.00  0.00     0.041 A 
ATOM     33  C   UNL     1      -3.222   6.686   2.757  1.00  0.00     0.137 A 
ATOM     34  Br  UNL     1      -4.700   4.273   2.426  1.00  0.00    -0.048 Br
ATOM     35  F   UNL     1      -4.202   7.027   3.623  1.00  0.00    -0.206 F 
ENDBRANCH   3  28
TORSDOF 8
