REMARK SMILES CC1(C)Cc2c(c(N3CCOCC3)nc3sc4c(NN)ncnc4c23)CS1
REMARK SMILES IDX 1 1 2 2 4 3 5 4 6 5 7 6 14 7 15 8 25 9 24 10 17 11 16 12
REMARK SMILES IDX 18 13 21 14 22 15 23 16 26 17 27 18 3 19 8 20 13 21 9 22
REMARK SMILES IDX 12 23 10 24 11 25 19 26 20 28
REMARK H PARENT 19 27 20 29 20 30
REMARK Flexibility Score: inf
ROOT
ATOM      1  C   UNL     1       1.157   3.646  -0.431  1.00  0.00     0.023 C 
ATOM      2  C   UNL     1       1.306   2.144  -0.178  1.00  0.00     0.015 C 
ATOM      3  C   UNL     1      -0.069   1.494  -0.103  1.00  0.00     0.054 C 
ATOM      4  C   UNL     1      -0.023  -0.005  -0.056  1.00  0.00    -0.026 A 
ATOM      5  C   UNL     1       0.979  -0.812  -0.465  1.00  0.00     0.009 A 
ATOM      6  C   UNL     1       0.831  -2.210  -0.374  1.00  0.00     0.134 A 
ATOM      7  N   UNL     1      -0.261  -2.757   0.123  1.00  0.00    -0.220 NA
ATOM      8  C   UNL     1      -1.250  -2.003   0.550  1.00  0.00     0.128 A 
ATOM      9  C   UNL     1      -1.201  -0.605   0.492  1.00  0.00     0.042 A 
ATOM     10  C   UNL     1      -2.389   0.106   1.002  1.00  0.00     0.096 A 
ATOM     11  C   UNL     1      -3.422  -0.704   1.490  1.00  0.00     0.099 A 
ATOM     12  S   UNL     1      -2.833  -2.360   1.274  1.00  0.00    -0.110 S 
ATOM     13  C   UNL     1      -4.587  -0.145   1.997  1.00  0.00     0.161 A 
ATOM     14  N   UNL     1      -4.698   1.183   2.006  1.00  0.00    -0.217 NA
ATOM     15  C   UNL     1      -3.716   1.932   1.540  1.00  0.00     0.225 A 
ATOM     16  N   UNL     1      -2.604   1.440   1.055  1.00  0.00    -0.235 NA
ATOM     17  C   UNL     1       2.311  -0.354  -1.010  1.00  0.00     0.109 C 
ATOM     18  S   UNL     1       2.204   1.371  -1.562  1.00  0.00    -0.150 SA
ATOM     19  C   UNL     1       2.064   1.909   1.129  1.00  0.00     0.023 C 
ENDROOT
BRANCH   6  20
ATOM     20  N   UNL     1       1.859  -3.030  -0.818  1.00  0.00    -0.352 N 
ATOM     21  C   UNL     1       2.400  -3.841   0.283  1.00  0.00     0.146 C 
ATOM     22  C   UNL     1       1.408  -3.888  -1.923  1.00  0.00     0.146 C 
ATOM     23  C   UNL     1       3.567  -4.684  -0.237  1.00  0.00     0.181 C 
ATOM     24  C   UNL     1       2.585  -4.731  -2.421  1.00  0.00     0.181 C 
ATOM     25  O   UNL     1       3.117  -5.488  -1.331  1.00  0.00    -0.378 OA
ENDBRANCH   6  20
BRANCH  13  26
ATOM     26  N   UNL     1      -5.608  -0.948   2.481  1.00  0.00    -0.307 N 
ATOM     27  H   UNL     1      -5.508  -1.973   2.467  1.00  0.00     0.183 HD
BRANCH  26  28
ATOM     28  N   UNL     1      -6.747  -0.379   2.976  1.00  0.00    -0.249 NA
ATOM     29  H   UNL     1      -7.105   0.209   2.211  1.00  0.00     0.143 HD
ATOM     30  H   UNL     1      -6.425   0.256   3.721  1.00  0.00     0.143 HD
ENDBRANCH  26  28
ENDBRANCH  13  26
TORSDOF 3
