REMARK SMILES CC(=O)O[C@H]1CC[C@H]2[C@H]3CC[C@H]4CC(=O)[C@H](C(N)=O)C[C@]4(C)[C@H]3CC[C@]12C
REMARK SMILES IDX 5 1 6 2 7 3 8 4 26 5 25 6 24 7 23 8 9 9 10 10 11 11 12 12
REMARK SMILES IDX 21 13 20 14 16 15 14 16 15 17 13 18 22 19 27 20 4 21 2 22
REMARK SMILES IDX 1 23 3 24 17 25 19 26 18 27
REMARK H PARENT 18 28 18 29
REMARK Flexibility Score: inf
ROOT
ATOM      1  C   UNL     1       1.955   1.013   1.325  1.00  0.00     0.182 C 
ATOM      2  C   UNL     1       0.753   1.194   2.292  1.00  0.00     0.046 C 
ATOM      3  C   UNL     1      -0.477   1.543   1.404  1.00  0.00     0.008 C 
ATOM      4  C   UNL     1      -0.013   1.110   0.008  1.00  0.00     0.002 C 
ATOM      5  C   UNL     1       1.446   1.608  -0.003  1.00  0.00     0.008 C 
ATOM      6  C   UNL     1       2.137   1.112  -1.251  1.00  0.00     0.011 C 
ATOM      7  C   UNL     1       1.381   1.675  -2.475  1.00  0.00     0.005 C 
ATOM      8  C   UNL     1      -0.071   1.230  -2.468  1.00  0.00    -0.001 C 
ATOM      9  C   UNL     1      -0.815   1.562  -1.182  1.00  0.00    -0.004 C 
ATOM     10  C   UNL     1      -1.328   2.983  -1.063  1.00  0.00     0.004 C 
ATOM     11  C   UNL     1      -1.459   3.644  -2.440  1.00  0.00     0.005 C 
ATOM     12  C   UNL     1      -1.974   2.569  -3.384  1.00  0.00     0.003 C 
ATOM     13  C   UNL     1      -0.834   1.607  -3.725  1.00  0.00    -0.025 C 
ATOM     14  C   UNL     1      -1.454   0.369  -4.386  1.00  0.00     0.028 C 
ATOM     15  C   UNL     1      -2.144   0.767  -5.695  1.00  0.00     0.145 C 
ATOM     16  C   UNL     1      -3.051   1.957  -5.499  1.00  0.00     0.145 C 
ATOM     17  O   UNL     1      -4.147   1.976  -6.018  1.00  0.00    -0.299 OA
ATOM     18  C   UNL     1      -2.593   3.131  -4.657  1.00  0.00     0.080 C 
ATOM     19  C   UNL     1       0.112   2.264  -4.729  1.00  0.00     0.012 C 
ATOM     20  C   UNL     1       1.585   3.124   0.103  1.00  0.00     0.015 C 
ENDROOT
BRANCH   1  21
ATOM     21  O   UNL     1       3.102   1.764   1.791  1.00  0.00    -0.462 OA
BRANCH  21  22
ATOM     22  C   UNL     1       4.015   1.096   2.513  1.00  0.00     0.302 C 
ATOM     23  C   UNL     1       5.236   1.811   3.032  1.00  0.00     0.139 C 
ATOM     24  O   UNL     1       3.859  -0.079   2.747  1.00  0.00    -0.253 OA
ENDBRANCH  21  22
ENDBRANCH   1  21
BRANCH  15  25
ATOM     25  C   UNL     1      -2.974  -0.403  -6.182  1.00  0.00     0.228 C 
ATOM     26  O   UNL     1      -3.023  -1.425  -5.531  1.00  0.00    -0.275 OA
ATOM     27  N   UNL     1      -3.659  -0.307  -7.339  1.00  0.00    -0.369 N 
ATOM     28  H   UNL     1      -3.618   0.561  -7.892  1.00  0.00     0.159 HD
ATOM     29  H   UNL     1      -4.224  -1.102  -7.670  1.00  0.00     0.159 HD
ENDBRANCH  15  25
TORSDOF 3
