REMARK SMILES C[N@H+](Cc1n[nH]c2c1CCCCC2)C1CCN(c2ccc(C(=O)NCc3ccccc3F)cc2)CC1
REMARK SMILES IDX 1 1 2 2 3 4 4 5 5 6 8 7 6 8 7 9 9 11 10 12 11 13 13 15 12 16
REMARK SMILES IDX 14 18 36 19 15 20 35 21 16 22 17 23 18 24 34 25 19 26 33 27
REMARK SMILES IDX 20 28 21 29 22 30 23 31 24 32 25 34 26 35 31 36 27 37 30 38
REMARK SMILES IDX 32 39 28 40 29 41
REMARK H PARENT 2 3 6 10 24 33
REMARK Flexibility Score: 90.00
ROOT
ATOM      1  C   UNL     1      -9.918   4.839  -0.658  1.00  0.00     0.333 C 
ATOM      2  N   UNL     1      -8.740   5.728  -0.746  1.00  0.00    -0.330 N 
ATOM      3  H   UNL     1      -8.653   6.256   0.134  1.00  0.00     0.348 HD
ENDROOT
BRANCH   2   4
ATOM      4  C   UNL     1      -8.910   6.681  -1.863  1.00  0.00     0.321 C 
BRANCH   4   5
ATOM      5  C   UNL     1     -10.032   7.629  -1.527  1.00  0.00     0.120 A 
ATOM      6  N   UNL     1      -9.912   8.764  -0.885  1.00  0.00    -0.174 NA
ATOM      7  C   UNL     1     -11.380   7.453  -1.851  1.00  0.00     0.002 A 
ATOM      8  N   UNL     1     -11.184   9.342  -0.776  1.00  0.00    -0.282 N 
ATOM      9  C   UNL     1     -12.065   8.521  -1.381  1.00  0.00     0.039 A 
ATOM     10  H   UNL     1     -11.406  10.237  -0.316  1.00  0.00     0.190 HD
BRANCH   7  11
ATOM     11  C   UNL     1     -11.977   6.277  -2.583  1.00  0.00     0.039 C 
BRANCH  11  12
ATOM     12  C   UNL     1     -13.244   6.728  -3.314  1.00  0.00     0.005 C 
BRANCH  12  13
ATOM     13  C   UNL     1     -14.451   6.583  -2.391  1.00  0.00     0.001 CG0
ATOM     14  G   UNL     1     -14.296   7.470  -1.159  1.00  0.00     0.000 G0
ENDBRANCH  12  13
ENDBRANCH  11  12
ENDBRANCH   7  11
BRANCH   9  15
ATOM     15  C   UNL     1     -13.548   8.747  -1.530  1.00  0.00     0.056 C 
BRANCH  15  16
ATOM     16  C   UNL     1     -14.296   7.470  -1.159  1.00  0.00     0.006 CG0
ATOM     17  G   UNL     1     -14.451   6.583  -2.391  1.00  0.00     0.000 G0
ENDBRANCH  15  16
ENDBRANCH   9  15
ENDBRANCH   4   5
ENDBRANCH   2   4
BRANCH   2  18
ATOM     18  C   UNL     1      -7.515   4.926  -0.948  1.00  0.00     0.187 C 
ATOM     19  C   UNL     1      -6.303   5.862  -0.956  1.00  0.00     0.086 C 
ATOM     20  C   UNL     1      -7.375   3.930   0.206  1.00  0.00     0.086 C 
ATOM     21  C   UNL     1      -5.024   5.031  -1.080  1.00  0.00     0.122 C 
ATOM     22  C   UNL     1      -6.064   3.156   0.049  1.00  0.00     0.122 C 
ATOM     23  N   UNL     1      -4.936   4.095   0.048  1.00  0.00    -0.371 N 
BRANCH  23  24
ATOM     24  C   UNL     1      -3.722   3.417   0.038  1.00  0.00     0.037 A 
ATOM     25  C   UNL     1      -3.705   2.025   0.031  1.00  0.00     0.027 A 
ATOM     26  C   UNL     1      -2.527   4.130   0.036  1.00  0.00     0.027 A 
ATOM     27  C   UNL     1      -2.506   1.350   0.015  1.00  0.00     0.016 A 
ATOM     28  C   UNL     1      -1.324   3.462   0.027  1.00  0.00     0.016 A 
ATOM     29  C   UNL     1      -1.304   2.064   0.019  1.00  0.00     0.039 A 
BRANCH  29  30
ATOM     30  C   UNL     1      -0.016   1.344   0.009  1.00  0.00     0.251 C 
ATOM     31  O   UNL     1       1.028   1.966   0.003  1.00  0.00    -0.269 OA
ATOM     32  N   UNL     1       0.002  -0.004   0.002  1.00  0.00    -0.348 N 
ATOM     33  H   UNL     1      -0.883  -0.531   0.008  1.00  0.00     0.164 HD
BRANCH  32  34
ATOM     34  C   UNL     1       1.281  -0.719  -0.014  1.00  0.00     0.155 C 
BRANCH  34  35
ATOM     35  C   UNL     1       1.025  -2.204  -0.020  1.00  0.00     0.007 A 
ATOM     36  C   UNL     1       0.692  -2.845  -1.200  1.00  0.00     0.128 A 
ATOM     37  C   UNL     1       1.130  -2.928   1.153  1.00  0.00     0.008 A 
ATOM     38  C   UNL     1       0.457  -4.210  -1.204  1.00  0.00     0.039 A 
ATOM     39  F   UNL     1       0.595  -2.140  -2.349  1.00  0.00    -0.207 F 
ATOM     40  C   UNL     1       0.890  -4.290   1.150  1.00  0.00     0.001 A 
ATOM     41  C   UNL     1       0.557  -4.931  -0.029  1.00  0.00     0.003 A 
ENDBRANCH  34  35
ENDBRANCH  32  34
ENDBRANCH  29  30
ENDBRANCH  23  24
ENDBRANCH   2  18
TORSDOF 7
