REMARK SMILES Nc1c(N(Cc2ccccc2)C(=O)Cc2ccc3ccccc3c2)c(=O)[nH]c(=O)n1Cc1ccccc1
REMARK SMILES IDX 4 1 3 2 30 3 28 4 2 5 27 6 29 7 25 8 26 10 31 11 32 12 35 13
REMARK SMILES IDX 36 14 34 15 37 16 33 17 1 18 5 21 6 22 11 23 7 24 10 25 8 26
REMARK SMILES IDX 9 27 12 28 13 29 14 30 15 31 24 32 16 33 23 34 17 35 18 36
REMARK SMILES IDX 22 37 19 38 21 39 20 40
REMARK H PARENT 27 9 1 19 1 20
REMARK Flexibility Score: inf
ROOT
ATOM      1  N   UNL     1       1.151   9.238   1.673  1.00  0.00    -0.300 N 
ENDROOT
BRANCH   1   2
ATOM      2  C   UNL     1       1.405   9.890   2.897  1.00  0.00     0.151 A 
ATOM      3  N   UNL     1       0.924  11.596   4.482  1.00  0.00    -0.274 N 
ATOM      4  C   UNL     1       1.914  11.140   5.271  1.00  0.00     0.330 A 
ATOM      5  C   UNL     1       0.655  10.983   3.280  1.00  0.00     0.138 A 
ATOM      6  N   UNL     1       2.659  10.079   4.912  1.00  0.00    -0.272 N 
ATOM      7  O   UNL     1       2.140  11.698   6.327  1.00  0.00    -0.248 OA
ATOM      8  C   UNL     1       2.433   9.441   3.748  1.00  0.00     0.279 A 
ATOM      9  H   UNL     1       3.410   9.751   5.536  1.00  0.00     0.175 HD
ATOM     10  O   UNL     1       3.114   8.480   3.432  1.00  0.00    -0.267 OA
BRANCH   3  11
ATOM     11  C   UNL     1       0.133  12.754   4.902  1.00  0.00     0.164 C 
BRANCH  11  12
ATOM     12  C   UNL     1       0.780  14.016   4.393  1.00  0.00    -0.028 A 
ATOM     13  C   UNL     1       1.967  16.332   3.460  1.00  0.00     0.000 A 
ATOM     14  C   UNL     1       2.314  15.829   4.699  1.00  0.00     0.000 A 
ATOM     15  C   UNL     1       1.026  15.678   2.687  1.00  0.00     0.000 A 
ATOM     16  C   UNL     1       1.717  14.674   5.168  1.00  0.00     0.005 A 
ATOM     17  C   UNL     1       0.432  14.520   3.154  1.00  0.00     0.005 A 
ENDBRANCH  11  12
ENDBRANCH   3  11
BRANCH   5  18
ATOM     18  N   UNL     1      -0.352  11.452   2.471  1.00  0.00    -0.383 N 
ATOM     19  H   UNL     1      -0.908  12.267   2.768  1.00  0.00     0.158 HD
ATOM     20  H   UNL     1      -0.552  10.992   1.572  1.00  0.00     0.158 HD
ENDBRANCH   5  18
ENDBRANCH   1   2
BRANCH   1  21
ATOM     21  C   UNL     1       1.401   9.932   0.407  1.00  0.00     0.161 C 
BRANCH  21  22
ATOM     22  C   UNL     1       2.853   9.786   0.033  1.00  0.00    -0.028 A 
ATOM     23  C   UNL     1       3.249   8.772  -0.820  1.00  0.00     0.005 A 
ATOM     24  C   UNL     1       3.789  10.669   0.537  1.00  0.00     0.005 A 
ATOM     25  C   UNL     1       4.581   8.638  -1.163  1.00  0.00     0.000 A 
ATOM     26  C   UNL     1       5.122  10.532   0.198  1.00  0.00     0.000 A 
ATOM     27  C   UNL     1       5.518   9.518  -0.655  1.00  0.00     0.000 A 
ENDBRANCH  21  22
ENDBRANCH   1  21
BRANCH   1  28
ATOM     28  C   UNL     1       0.676   7.975   1.667  1.00  0.00     0.231 C 
ATOM     29  O   UNL     1       0.387   7.431   2.712  1.00  0.00    -0.274 OA
BRANCH  28  30
ATOM     30  C   UNL     1       0.506   7.240   0.362  1.00  0.00     0.136 C 
BRANCH  30  31
ATOM     31  C   UNL     1      -0.077   5.876   0.626  1.00  0.00    -0.038 A 
ATOM     32  C   UNL     1      -1.429   5.715   0.635  1.00  0.00     0.013 A 
ATOM     33  C   UNL     1       0.775   4.798   0.859  1.00  0.00     0.005 A 
ATOM     34  C   UNL     1      -1.976   4.444   0.881  1.00  0.00    -0.018 A 
ATOM     35  C   UNL     1       0.280   3.553   1.100  1.00  0.00     0.009 A 
ATOM     36  C   UNL     1      -1.110   3.348   1.117  1.00  0.00    -0.018 A 
ATOM     37  C   UNL     1      -3.367   4.240   0.897  1.00  0.00     0.009 A 
ATOM     38  C   UNL     1      -1.658   2.078   1.363  1.00  0.00     0.009 A 
ATOM     39  C   UNL     1      -3.861   2.994   1.134  1.00  0.00     0.001 A 
ATOM     40  C   UNL     1      -3.009   1.917   1.372  1.00  0.00     0.001 A 
ENDBRANCH  30  31
ENDBRANCH  28  30
ENDBRANCH   1  28
TORSDOF 9
