REMARK SMILES O=C(C[N@@H+](Cc1ccc2c(c1)OCO2)C1CCCC1)N1CC=C(c2c[nH]c3ccccc23)CC1
REMARK SMILES IDX 3 1 2 2 1 3 20 4 23 5 33 6 22 7 34 8 21 9 24 10 30 11 31 12
REMARK SMILES IDX 29 13 32 14 28 15 27 16 26 17 25 18 4 20 5 22 6 23 11 24
REMARK SMILES IDX 7 25 10 26 8 27 9 28 12 29 14 30 13 31 15 32 19 33 16 34
REMARK SMILES IDX 18 35 17 36
REMARK H PARENT 26 19 4 21
REMARK Flexibility Score: inf
ROOT
ATOM      1  C   UNL     1       1.039   2.090  -0.901  1.00  0.00     0.364 C 
ENDROOT
BRANCH   1   2
ATOM      2  C   UNL     1       2.509   2.119  -0.571  1.00  0.00     0.278 C 
ATOM      3  O   UNL     1       2.885   1.841   0.548  1.00  0.00    -0.268 OA
BRANCH   2   4
ATOM      4  N   UNL     1       3.406   2.453  -1.520  1.00  0.00    -0.334 N 
ATOM      5  C   UNL     1       5.029   1.545  -3.524  1.00  0.00    -0.039 C 
ATOM      6  C   UNL     1       5.537   1.450  -2.116  1.00  0.00     0.057 C 
ATOM      7  C   UNL     1       3.905   2.127  -3.868  1.00  0.00    -0.001 C 
ATOM      8  C   UNL     1       4.849   2.497  -1.228  1.00  0.00     0.125 C 
ATOM      9  C   UNL     1       2.983   2.795  -2.885  1.00  0.00     0.147 C 
BRANCH   5  10
ATOM     10  C   UNL     1       5.849   0.943  -4.595  1.00  0.00     0.003 A 
ATOM     11  C   UNL     1       4.603  -2.365  -6.053  1.00  0.00     0.001 A 
ATOM     12  C   UNL     1       4.568  -1.274  -5.231  1.00  0.00     0.011 A 
ATOM     13  C   UNL     1       5.636  -2.526  -6.966  1.00  0.00     0.002 A 
ATOM     14  C   UNL     1       5.578  -0.317  -5.308  1.00  0.00     0.007 A 
ATOM     15  C   UNL     1       6.644  -1.591  -7.058  1.00  0.00     0.027 A 
ATOM     16  C   UNL     1       6.627  -0.473  -6.229  1.00  0.00     0.046 A 
ATOM     17  N   UNL     1       7.469   0.609  -6.085  1.00  0.00    -0.361 N 
ATOM     18  C   UNL     1       6.997   1.447  -5.117  1.00  0.00     0.091 A 
ATOM     19  H   UNL     1       8.330   0.762  -6.629  1.00  0.00     0.166 HD
ENDBRANCH   5  10
ENDBRANCH   2   4
ENDBRANCH   1   2
BRANCH   1  20
ATOM     20  N   UNL     1       0.289   1.566   0.249  1.00  0.00    -0.321 N 
ATOM     21  H   UNL     1       0.886   1.656   1.083  1.00  0.00     0.349 HD
BRANCH  20  22
ATOM     22  C   UNL     1      -0.932   2.349   0.481  1.00  0.00     0.299 C 
BRANCH  22  23
ATOM     23  C   UNL     1      -1.568   1.914   1.776  1.00  0.00     0.010 A 
ATOM     24  C   UNL     1      -2.586   0.979   1.765  1.00  0.00     0.060 A 
ATOM     25  C   UNL     1      -1.136   2.455   2.973  1.00  0.00     0.013 A 
ATOM     26  C   UNL     1      -3.169   0.574   2.955  1.00  0.00     0.166 A 
ATOM     27  C   UNL     1      -1.717   2.060   4.164  1.00  0.00     0.051 A 
ATOM     28  C   UNL     1      -2.734   1.119   4.160  1.00  0.00     0.165 A 
ATOM     29  O   UNL     1      -4.168  -0.319   3.216  1.00  0.00    -0.454 OA
ATOM     30  O   UNL     1      -3.460   0.569   5.176  1.00  0.00    -0.454 OA
ATOM     31  C   UNL     1      -4.619  -0.013   4.549  1.00  0.00     0.468 C 
ENDBRANCH  22  23
ENDBRANCH  20  22
BRANCH  20  32
ATOM     32  C   UNL     1      -0.024   0.142   0.069  1.00  0.00     0.184 C 
ATOM     33  C   UNL     1      -0.840  -0.059  -1.220  1.00  0.00     0.065 C 
ATOM     34  C   UNL     1       1.278  -0.668  -0.102  1.00  0.00     0.065 C 
ATOM     35  C   UNL     1      -0.005  -0.985  -2.130  1.00  0.00     0.006 C 
ATOM     36  C   UNL     1       0.916  -1.751  -1.149  1.00  0.00     0.006 C 
ENDBRANCH  20  32
ENDBRANCH   1  20
TORSDOF 7
