REMARK SMILES Oc1c2ccccc2c(O)c2/c(=N/CCC[N@@H+]3CCc4ccccc4C3)cc3oc4ccccc4nc-3c12
REMARK SMILES IDX 15 1 16 2 17 3 22 4 21 5 23 6 20 7 24 8 25 9 19 10 26 11
REMARK SMILES IDX 18 12 14 14 13 15 12 16 11 17 27 18 38 19 9 20 28 21 37 22
REMARK SMILES IDX 2 23 8 24 29 25 36 26 3 27 7 28 30 29 35 30 4 31 6 32 31 33
REMARK SMILES IDX 34 34 5 35 32 36 33 37 10 38 1 40
REMARK H PARENT 17 13 10 39 1 41
REMARK Flexibility Score: inf
ROOT
ATOM      1  C   UNL     1      -0.743   1.607  -1.232  1.00  0.00     0.085 C 
ENDROOT
BRANCH   1   2
ATOM      2  C   UNL     1      -0.013   1.134  -2.490  1.00  0.00     0.264 C 
BRANCH   2   3
ATOM      3  N   UNL     1      -0.727   1.616  -3.680  1.00  0.00    -0.331 N 
ATOM      4  C   UNL     1      -2.909   4.554  -7.098  1.00  0.00     0.000 A 
ATOM      5  C   UNL     1      -2.205   3.367  -7.150  1.00  0.00     0.004 A 
ATOM      6  C   UNL     1      -3.012   5.240  -5.902  1.00  0.00     0.001 A 
ATOM      7  C   UNL     1      -1.602   2.860  -6.009  1.00  0.00    -0.034 A 
ATOM      8  C   UNL     1      -2.410   4.737  -4.766  1.00  0.00     0.010 A 
ATOM      9  C   UNL     1      -1.703   3.545  -4.817  1.00  0.00     0.010 A 
ATOM     10  C   UNL     1      -0.849   1.558  -6.112  1.00  0.00     0.097 C 
ATOM     11  C   UNL     1      -1.060   3.038  -3.552  1.00  0.00     0.299 C 
ATOM     12  C   UNL     1       0.066   1.387  -4.899  1.00  0.00     0.267 C 
ATOM     13  H   UNL     1      -1.604   1.082  -3.757  1.00  0.00     0.348 HD
ENDBRANCH   2   3
ENDBRANCH   1   2
BRANCH   1  14
ATOM     14  C   UNL     1       0.000   1.105   0.008  1.00  0.00     0.148 C 
BRANCH  14  15
ATOM     15  N   UNL     1      -0.698   1.558   1.213  1.00  0.00    -0.284 NA
ATOM     16  C   UNL     1      -0.209   1.223   2.465  1.00  0.00     0.073 A 
ATOM     17  C   UNL     1      -0.801   1.760   3.616  1.00  0.00     0.056 A 
ATOM     18  C   UNL     1       0.871   0.347   2.580  1.00  0.00     0.078 A 
ATOM     19  C   UNL     1      -0.295   1.413   4.891  1.00  0.00     0.060 A 
ATOM     20  C   UNL     1      -1.940   2.677   3.501  1.00  0.00     0.133 A 
ATOM     21  C   UNL     1       1.372   0.009   3.821  1.00  0.00     0.156 A 
ATOM     22  C   UNL     1       0.788   0.539   4.987  1.00  0.00     0.118 A 
ATOM     23  C   UNL     1      -0.911   1.970   6.103  1.00  0.00     0.133 A 
ATOM     24  C   UNL     1      -2.560   3.238   4.719  1.00  0.00     0.028 A 
ATOM     25  O   UNL     1       2.425  -0.840   3.911  1.00  0.00    -0.453 OA
ATOM     26  N   UNL     1       1.296   0.188   6.228  1.00  0.00    -0.240 NA
ATOM     27  C   UNL     1      -2.058   2.894   5.987  1.00  0.00     0.028 A 
ATOM     28  C   UNL     1      -3.641   4.110   4.619  1.00  0.00     0.013 A 
ATOM     29  C   UNL     1       2.936  -1.196   5.118  1.00  0.00     0.153 A 
ATOM     30  C   UNL     1       2.383  -0.691   6.294  1.00  0.00     0.106 A 
ATOM     31  C   UNL     1      -2.648   3.428   7.130  1.00  0.00     0.013 A 
ATOM     32  C   UNL     1      -4.215   4.631   5.764  1.00  0.00     0.001 A 
ATOM     33  C   UNL     1       4.013  -2.066   5.184  1.00  0.00     0.049 A 
ATOM     34  C   UNL     1       2.910  -1.060   7.522  1.00  0.00     0.032 A 
ATOM     35  C   UNL     1      -3.721   4.292   7.011  1.00  0.00     0.001 A 
ATOM     36  C   UNL     1       4.533  -2.430   6.412  1.00  0.00     0.004 A 
ATOM     37  C   UNL     1       3.984  -1.929   7.578  1.00  0.00     0.003 A 
BRANCH  20  38
ATOM     38  O   UNL     1      -2.374   2.975   2.404  1.00  0.00    -0.507 OA
ATOM     39  H   UNL     1      -2.593   2.109   1.978  1.00  0.00     0.293 HD
ENDBRANCH  20  38
BRANCH  23  40
ATOM     40  O   UNL     1      -0.477   1.672   7.200  1.00  0.00    -0.507 OA
ATOM     41  H   UNL     1       0.481   1.917   7.164  1.00  0.00     0.293 HD
ENDBRANCH  23  40
ENDBRANCH  14  15
ENDBRANCH   1  14
TORSDOF 6
