REMARK SMILES CCCN(CCC)C(=O)c1cc(C)cc(C(=O)N[C@@H](Cc2cc(F)cc(F)c2)[C@H](O)[C@H]2C[C@@H](Oc3ccccc3)C[NH2+]2)c1
REMARK SMILES IDX 16 1 17 2 18 3 15 5 10 6 43 7 11 8 12 9 14 10 13 11 8 12
REMARK SMILES IDX 4 13 9 14 3 15 2 16 1 17 5 18 6 19 7 20 19 21 20 22 21 23
REMARK SMILES IDX 22 24 28 25 23 26 26 27 25 28 24 29 27 30 29 31 31 32 32 33
REMARK SMILES IDX 42 34 33 35 41 36 34 39 35 40 40 41 36 42 39 43 37 44 38 45
REMARK SMILES IDX 30 46
REMARK H PARENT 18 4 42 37 42 38 30 47
REMARK Flexibility Score: inf
ROOT
ATOM      1  C   UNL     1       2.634   1.036   1.321  1.00  0.00     0.251 C 
ATOM      2  O   UNL     1       3.067  -0.098   1.382  1.00  0.00    -0.269 OA
ATOM      3  N   UNL     1       3.458   2.083   1.523  1.00  0.00    -0.346 N 
ATOM      4  H   UNL     1       3.091   3.045   1.471  1.00  0.00     0.164 HD
ENDROOT
BRANCH   1   5
ATOM      5  C   UNL     1       1.204   1.266   1.024  1.00  0.00     0.040 A 
ATOM      6  C   UNL     1      -0.993   0.410   0.531  1.00  0.00     0.041 A 
ATOM      7  C   UNL     1       0.352   0.184   0.815  1.00  0.00     0.027 A 
ATOM      8  C   UNL     1      -1.481   1.718   0.469  1.00  0.00     0.017 A 
ATOM      9  C   UNL     1      -0.631   2.785   0.678  1.00  0.00    -0.050 A 
ATOM     10  C   UNL     1       0.705   2.568   0.954  1.00  0.00     0.017 A 
ATOM     11  C   UNL     1      -1.163   4.193   0.604  1.00  0.00     0.044 C 
BRANCH   6  12
ATOM     12  C   UNL     1      -1.904  -0.732   0.301  1.00  0.00     0.253 C 
ATOM     13  N   UNL     1      -3.107  -0.768   0.908  1.00  0.00    -0.339 N 
ATOM     14  O   UNL     1      -1.568  -1.639  -0.435  1.00  0.00    -0.269 OA
BRANCH  13  15
ATOM     15  C   UNL     1      -3.949  -1.962   0.796  1.00  0.00     0.119 C 
BRANCH  15  16
ATOM     16  C   UNL     1      -3.627  -2.922   1.942  1.00  0.00     0.018 C 
ATOM     17  C   UNL     1      -4.507  -4.169   1.825  1.00  0.00     0.006 C 
ENDBRANCH  15  16
ENDBRANCH  13  15
BRANCH  13  18
ATOM     18  C   UNL     1      -3.572   0.387   1.681  1.00  0.00     0.119 C 
BRANCH  18  19
ATOM     19  C   UNL     1      -4.536   1.215   0.829  1.00  0.00     0.018 C 
ATOM     20  C   UNL     1      -4.917   2.490   1.585  1.00  0.00     0.006 C 
ENDBRANCH  18  19
ENDBRANCH  13  18
ENDBRANCH   6  12
ENDBRANCH   1   5
BRANCH   3  21
ATOM     21  C   UNL     1       4.875   1.855   1.817  1.00  0.00     0.121 C 
BRANCH  21  22
ATOM     22  C   UNL     1       5.647   1.690   0.507  1.00  0.00     0.063 C 
BRANCH  22  23
ATOM     23  C   UNL     1       5.180   0.442  -0.197  1.00  0.00    -0.040 A 
ATOM     24  C   UNL     1       4.130   0.506  -1.093  1.00  0.00     0.043 A 
ATOM     25  C   UNL     1       5.806  -0.766   0.050  1.00  0.00     0.043 A 
ATOM     26  C   UNL     1       3.700  -0.640  -1.740  1.00  0.00     0.126 A 
ATOM     27  C   UNL     1       5.374  -1.914  -0.592  1.00  0.00     0.126 A 
ATOM     28  C   UNL     1       4.322  -1.851  -1.490  1.00  0.00     0.078 A 
ATOM     29  F   UNL     1       2.673  -0.577  -2.616  1.00  0.00    -0.207 F 
ATOM     30  F   UNL     1       5.982  -3.095  -0.346  1.00  0.00    -0.207 F 
ENDBRANCH  22  23
ENDBRANCH  21  22
BRANCH  21  31
ATOM     31  C   UNL     1       5.434   3.051   2.591  1.00  0.00     0.195 C 
BRANCH  31  32
ATOM     32  C   UNL     1       6.877   2.760   3.006  1.00  0.00     0.217 C 
ATOM     33  C   UNL     1       7.438   3.924   3.860  1.00  0.00     0.119 C 
ATOM     34  N   UNL     1       6.932   1.585   3.897  1.00  0.00    -0.338 N 
ATOM     35  C   UNL     1       8.556   3.212   4.666  1.00  0.00     0.234 C 
ATOM     36  C   UNL     1       7.961   1.812   4.923  1.00  0.00     0.306 C 
ATOM     37  H   UNL     1       7.172   0.747   3.349  1.00  0.00     0.346 HD
ATOM     38  H   UNL     1       6.017   1.454   4.351  1.00  0.00     0.346 HD
BRANCH  35  39
ATOM     39  O   UNL     1       8.806   3.890   5.899  1.00  0.00    -0.484 OA
BRANCH  39  40
ATOM     40  C   UNL     1       9.986   3.627   6.520  1.00  0.00     0.120 A 
ATOM     41  C   UNL     1      10.870   2.709   5.971  1.00  0.00     0.046 A 
ATOM     42  C   UNL     1      10.311   4.280   7.700  1.00  0.00     0.046 A 
ATOM     43  C   UNL     1      12.069   2.444   6.604  1.00  0.00     0.004 A 
ATOM     44  C   UNL     1      11.508   4.008   8.331  1.00  0.00     0.004 A 
ATOM     45  C   UNL     1      12.388   3.092   7.783  1.00  0.00     0.000 A 
ENDBRANCH  39  40
ENDBRANCH  35  39
ENDBRANCH  31  32
BRANCH  31  46
ATOM     46  O   UNL     1       5.402   4.213   1.760  1.00  0.00    -0.385 OA
ATOM     47  H   UNL     1       4.468   4.403   1.491  1.00  0.00     0.211 HD
ENDBRANCH  31  46
ENDBRANCH  21  31
ENDBRANCH   3  21
TORSDOF 14
