REMARK SMILES Cc1c(C(=O)NNC(=O)Cc2nc3ccccc3n2C)oc2ccc(Br)cc12
REMARK SMILES IDX 7 1 8 2 9 3 6 5 4 6 5 7 3 9 1 10 2 11 28 12 21 13 22 14
REMARK SMILES IDX 27 15 23 16 25 17 24 18 26 19 10 20 11 21 19 22 12 23 18 24
REMARK SMILES IDX 20 25 13 26 17 27 14 28 16 29 15 30
REMARK H PARENT 7 4 6 8
REMARK Flexibility Score: inf
ROOT
ATOM      1  N   UNL     1      -5.300   1.824  -0.440  1.00  0.00    -0.267 N 
ATOM      2  C   UNL     1      -6.593   2.111  -0.190  1.00  0.00     0.245 C 
ATOM      3  O   UNL     1      -6.927   2.494   0.911  1.00  0.00    -0.273 OA
ATOM      4  H   UNL     1      -5.016   1.498  -1.375  1.00  0.00     0.191 HD
ENDROOT
BRANCH   1   5
ATOM      5  N   UNL     1      -4.342   1.967   0.572  1.00  0.00    -0.261 N 
ATOM      6  C   UNL     1      -3.049   1.680   0.323  1.00  0.00     0.305 C 
ATOM      7  O   UNL     1      -2.714   1.296  -0.782  1.00  0.00    -0.264 OA
ATOM      8  H   UNL     1      -4.626   2.293   1.507  1.00  0.00     0.191 HD
BRANCH   6   9
ATOM      9  C   UNL     1      -2.044   1.831   1.384  1.00  0.00     0.197 A 
ATOM     10  C   UNL     1      -0.013   1.086   0.008  1.00  0.00     0.049 C 
ATOM     11  C   UNL     1      -0.718   1.572   1.248  1.00  0.00     0.009 A 
ATOM     12  C   UNL     1      -0.112   1.866   2.546  1.00  0.00     0.025 A 
ATOM     13  O   UNL     1      -2.300   2.245   2.643  1.00  0.00    -0.451 OA
ATOM     14  C   UNL     1      -1.170   2.285   3.374  1.00  0.00     0.135 A 
ATOM     15  C   UNL     1       1.190   1.809   3.048  1.00  0.00     0.028 A 
ATOM     16  C   UNL     1      -0.900   2.639   4.691  1.00  0.00     0.049 A 
ATOM     17  C   UNL     1       1.432   2.162   4.346  1.00  0.00     0.018 A 
ATOM     18  C   UNL     1       0.392   2.576   5.168  1.00  0.00     0.019 A 
ATOM     19  Br  UNL     1       3.194   2.086   5.028  1.00  0.00    -0.051 Br
ENDBRANCH   6   9
ENDBRANCH   1   5
BRANCH   2  20
ATOM     20  C   UNL     1      -7.623   1.956  -1.279  1.00  0.00     0.177 C 
BRANCH  20  21
ATOM     21  C   UNL     1      -8.979   2.339  -0.745  1.00  0.00     0.119 A 
ATOM     22  N   UNL     1      -9.507   3.592  -0.783  1.00  0.00    -0.331 N 
ATOM     23  N   UNL     1      -9.819   1.517  -0.185  1.00  0.00    -0.233 NA
ATOM     24  C   UNL     1     -10.757   3.530  -0.200  1.00  0.00     0.068 A 
ATOM     25  C   UNL     1      -8.867   4.787  -1.340  1.00  0.00     0.151 C 
ATOM     26  C   UNL     1     -10.940   2.190   0.182  1.00  0.00     0.089 A 
ATOM     27  C   UNL     1     -11.755   4.462   0.048  1.00  0.00     0.028 A 
ATOM     28  C   UNL     1     -12.130   1.810   0.808  1.00  0.00     0.030 A 
ATOM     29  C   UNL     1     -12.921   4.064   0.668  1.00  0.00     0.002 A 
ATOM     30  C   UNL     1     -13.102   2.741   1.044  1.00  0.00     0.002 A 
ENDBRANCH  20  21
ENDBRANCH   2  20
TORSDOF 4
