REMARK SMILES C[C@@H](CNC(=O)NCc1cc(Cl)c2c(c1)OCCCO2)[N@@H+]1CCc2ccccc2C1
REMARK SMILES IDX 8 1 7 2 4 3 5 4 6 6 3 8 2 9 1 10 21 11 30 12 22 13 29 15
REMARK SMILES IDX 23 16 24 17 28 18 25 19 27 20 26 21 9 22 10 23 15 24 11 25
REMARK SMILES IDX 14 26 13 27 12 28 16 29 17 30 20 32 19 33 18 34
REMARK H PARENT 4 5 7 7 21 14
REMARK Flexibility Score: 90.00
ROOT
ATOM      1  C   UNL     1      -5.856   2.021   2.305  1.00  0.00     0.153 C 
ENDROOT
BRANCH   1   2
ATOM      2  N   UNL     1      -4.468   2.269   1.907  1.00  0.00    -0.334 N 
ATOM      3  N   UNL     1      -2.746   2.067   0.343  1.00  0.00    -0.332 N 
ATOM      4  C   UNL     1      -4.023   1.839   0.709  1.00  0.00     0.315 C 
ATOM      5  H   UNL     1      -2.110   2.570   0.978  1.00  0.00     0.165 HD
ATOM      6  O   UNL     1      -4.774   1.245  -0.040  1.00  0.00    -0.249 OA
ATOM      7  H   UNL     1      -3.832   2.772   2.542  1.00  0.00     0.165 HD
BRANCH   3   8
ATOM      8  C   UNL     1      -2.263   1.599  -0.958  1.00  0.00     0.182 C 
BRANCH   8   9
ATOM      9  C   UNL     1      -0.791   1.984  -1.124  1.00  0.00     0.200 C 
ATOM     10  C   UNL     1      -0.252   1.389  -2.426  1.00  0.00     0.077 C 
BRANCH   9  11
ATOM     11  N   UNL     1      -0.018   1.462   0.010  1.00  0.00    -0.327 N 
ATOM     12  C   UNL     1       0.002  -0.004   0.002  1.00  0.00     0.299 C 
ATOM     13  C   UNL     1       1.355   1.991  -0.000  1.00  0.00     0.267 C 
ATOM     14  H   UNL     1      -0.481   1.776   0.875  1.00  0.00     0.348 HD
ATOM     15  C   UNL     1       0.879  -0.526   1.110  1.00  0.00     0.010 A 
ATOM     16  C   UNL     1       1.989   1.722   1.365  1.00  0.00     0.097 C 
ATOM     17  C   UNL     1       1.807   0.274   1.741  1.00  0.00    -0.034 A 
ATOM     18  C   UNL     1       0.739  -1.851   1.494  1.00  0.00     0.010 A 
ATOM     19  C   UNL     1       2.598  -0.251   2.752  1.00  0.00     0.004 A 
ATOM     20  C   UNL     1       1.524  -2.373   2.502  1.00  0.00     0.001 A 
ATOM     21  C   UNL     1       2.458  -1.571   3.132  1.00  0.00     0.000 A 
ENDBRANCH   9  11
ENDBRANCH   8   9
ENDBRANCH   3   8
ENDBRANCH   1   2
BRANCH   1  22
ATOM     22  C   UNL     1      -6.096   2.599   3.676  1.00  0.00    -0.023 A 
ATOM     23  C   UNL     1      -5.883   1.821   4.798  1.00  0.00     0.030 A 
ATOM     24  C   UNL     1      -6.534   3.905   3.807  1.00  0.00     0.056 A 
ATOM     25  C   UNL     1      -6.096   2.347   6.061  1.00  0.00     0.087 A 
ATOM     26  C   UNL     1      -6.753   4.433   5.068  1.00  0.00     0.163 A 
ATOM     27  C   UNL     1      -6.534   3.654   6.195  1.00  0.00     0.179 A 
ATOM     28  Cl  UNL     1      -5.821   1.370   7.470  1.00  0.00    -0.080 Cl
BRANCH  26  29
ATOM     29  O   UNL     1      -7.185   5.719   5.211  1.00  0.00    -0.489 OA
BRANCH  29  30
ATOM     30  C   UNL     1      -8.514   5.881   5.710  1.00  0.00     0.233 CG0
ATOM     31  G   UNL     1      -8.531   5.824   7.229  1.00  0.00     0.000 G0
ENDBRANCH  29  30
ENDBRANCH  26  29
BRANCH  27  32
ATOM     32  O   UNL     1      -6.753   4.183   7.434  1.00  0.00    -0.488 OA
BRANCH  32  33
ATOM     33  C   UNL     1      -8.116   4.462   7.762  1.00  0.00     0.233 C 
BRANCH  33  34
ATOM     34  C   UNL     1      -8.531   5.824   7.229  1.00  0.00     0.083 CG0
ATOM     35  G   UNL     1      -8.514   5.881   5.710  1.00  0.00     0.000 G0
ENDBRANCH  33  34
ENDBRANCH  32  33
ENDBRANCH  27  32
ENDBRANCH   1  22
TORSDOF 5
