REMARK SMILES CCCCCNC(=O)c1ccc2c(O)nc3c(-c4cccc(F)c4)nnn3c2c1
REMARK SMILES IDX 5 1 4 2 3 3 2 4 1 5 6 6 7 7 8 9 9 10 29 11 10 12 28 13 11 14
REMARK SMILES IDX 12 15 27 16 13 17 26 18 16 19 15 20 25 21 17 22 14 23 18 25
REMARK SMILES IDX 24 26 19 27 22 28 20 29 21 30 23 31
REMARK H PARENT 6 8 14 24
REMARK Flexibility Score: inf
ROOT
ATOM      1  C   UNL     1      -4.967   3.879   0.070  1.00  0.00     0.116 C 
ENDROOT
BRANCH   1   2
ATOM      2  C   UNL     1      -6.112   2.863   0.076  1.00  0.00     0.021 C 
BRANCH   2   3
ATOM      3  C   UNL     1      -7.450   3.604   0.092  1.00  0.00     0.002 C 
BRANCH   3   4
ATOM      4  C   UNL     1      -8.595   2.589   0.098  1.00  0.00    -0.003 C 
ATOM      5  C   UNL     1      -9.934   3.330   0.114  1.00  0.00     0.004 C 
ENDBRANCH   3   4
ENDBRANCH   2   3
ENDBRANCH   1   2
BRANCH   1   6
ATOM      6  N   UNL     1      -3.685   3.169   0.054  1.00  0.00    -0.352 N 
ATOM      7  C   UNL     1      -2.531   3.864   0.046  1.00  0.00     0.251 C 
ATOM      8  H   UNL     1      -3.667   2.139   0.049  1.00  0.00     0.163 HD
ATOM      9  O   UNL     1      -2.553   5.079   0.052  1.00  0.00    -0.269 OA
BRANCH   7  10
ATOM     10  C   UNL     1      -1.236   3.148   0.031  1.00  0.00     0.041 A 
ATOM     11  C   UNL     1      -0.044   3.869   0.023  1.00  0.00     0.043 A 
ATOM     12  C   UNL     1      -1.213   1.750   0.017  1.00  0.00     0.015 A 
ATOM     13  C   UNL     1       1.167   3.195   0.008  1.00  0.00     0.082 A 
ATOM     14  C   UNL     1      -0.013   1.076   0.008  1.00  0.00     0.017 A 
ATOM     15  C   UNL     1       1.184   1.791   0.000  1.00  0.00     0.062 A 
ATOM     16  N   UNL     1       2.373   3.888  -0.001  1.00  0.00    -0.193 N 
ATOM     17  C   UNL     1       2.488   1.098  -0.016  1.00  0.00     0.222 A 
ATOM     18  N   UNL     1       2.680   5.255   0.003  1.00  0.00    -0.060 NA
ATOM     19  C   UNL     1       3.560   3.219  -0.015  1.00  0.00     0.187 A 
ATOM     20  N   UNL     1       3.616   1.838  -0.023  1.00  0.00    -0.191 NA
ATOM     21  N   UNL     1       3.960   5.390  -0.009  1.00  0.00    -0.127 NA
ATOM     22  C   UNL     1       4.549   4.186  -0.020  1.00  0.00     0.140 A 
BRANCH  17  23
ATOM     23  O   UNL     1       2.544  -0.117  -0.022  1.00  0.00    -0.493 OA
ATOM     24  H   UNL     1       2.009  -0.383  -0.812  1.00  0.00     0.295 HD
ENDBRANCH  17  23
BRANCH  22  25
ATOM     25  C   UNL     1       6.010   3.935  -0.036  1.00  0.00     0.009 A 
ATOM     26  C   UNL     1       6.860   4.793  -0.731  1.00  0.00     0.049 A 
ATOM     27  C   UNL     1       6.539   2.842   0.650  1.00  0.00     0.011 A 
ATOM     28  C   UNL     1       8.221   4.553  -0.742  1.00  0.00     0.123 A 
ATOM     29  C   UNL     1       7.899   2.609   0.630  1.00  0.00     0.004 A 
ATOM     30  C   UNL     1       8.740   3.462  -0.062  1.00  0.00     0.039 A 
ATOM     31  F   UNL     1       9.048   5.383  -1.415  1.00  0.00    -0.207 F 
ENDBRANCH  22  25
ENDBRANCH   7  10
ENDBRANCH   1   6
TORSDOF 7
