REMARK SMILES Cc1nn(-c2ccccc2)c2ncc(C(=O)NCC3([NH+]4CCSCC4)CCCC3)cc12
REMARK SMILES IDX 15 1 16 2 17 3 14 5 1 6 2 7 3 8 31 9 4 10 11 11 30 12 12 13
REMARK SMILES IDX 13 14 5 15 10 16 6 17 9 18 7 19 8 20 18 21 19 22 29 23 26 24
REMARK SMILES IDX 28 25 27 26 20 27 25 28 21 29 24 31 22 32 23 33
REMARK H PARENT 17 4 20 30
REMARK Flexibility Score: inf
ROOT
ATOM      1  C   UNL     1       0.663   5.067   2.841  1.00  0.00     0.253 C 
ATOM      2  O   UNL     1      -0.358   5.698   2.650  1.00  0.00    -0.269 OA
ATOM      3  N   UNL     1       1.231   4.382   1.829  1.00  0.00    -0.346 N 
ATOM      4  H   UNL     1       2.097   3.847   1.991  1.00  0.00     0.164 HD
ENDROOT
BRANCH   1   5
ATOM      5  C   UNL     1       1.281   5.051   4.182  1.00  0.00     0.058 A 
ATOM      6  C   UNL     1      -0.128   7.178   8.130  1.00  0.00     0.069 C 
ATOM      7  C   UNL     1       1.040   6.289   7.790  1.00  0.00     0.069 A 
ATOM      8  N   UNL     1       1.976   5.902   8.609  1.00  0.00    -0.171 NA
ATOM      9  C   UNL     1       1.328   5.705   6.483  1.00  0.00     0.043 A 
ATOM     10  N   UNL     1       2.893   5.085   7.941  1.00  0.00    -0.215 N 
ATOM     11  C   UNL     1       2.511   4.952   6.633  1.00  0.00     0.163 A 
ATOM     12  C   UNL     1       0.700   5.757   5.236  1.00  0.00     0.029 A 
ATOM     13  N   UNL     1       3.023   4.298   5.596  1.00  0.00    -0.236 NA
ATOM     14  C   UNL     1       2.456   4.321   4.414  1.00  0.00     0.127 A 
BRANCH  10  15
ATOM     15  C   UNL     1       4.024   4.495   8.519  1.00  0.00     0.067 A 
ATOM     16  C   UNL     1       4.732   5.168   9.506  1.00  0.00     0.028 A 
ATOM     17  C   UNL     1       4.437   3.234   8.110  1.00  0.00     0.028 A 
ATOM     18  C   UNL     1       5.847   4.584  10.074  1.00  0.00     0.002 A 
ATOM     19  C   UNL     1       5.556   2.658   8.678  1.00  0.00     0.002 A 
ATOM     20  C   UNL     1       6.259   3.330   9.660  1.00  0.00     0.000 A 
ENDBRANCH  10  15
ENDBRANCH   1   5
BRANCH   3  21
ATOM     21  C   UNL     1       0.618   4.397   0.498  1.00  0.00     0.184 C 
BRANCH  21  22
ATOM     22  C   UNL     1       1.539   3.688  -0.496  1.00  0.00     0.115 C 
ATOM     23  C   UNL     1       1.876   2.275   0.012  1.00  0.00     0.070 C 
ATOM     24  C   UNL     1       2.878   4.447  -0.610  1.00  0.00     0.070 C 
ATOM     25  C   UNL     1       3.407   2.224   0.189  1.00  0.00     0.007 C 
ATOM     26  C   UNL     1       3.819   3.705   0.373  1.00  0.00     0.007 C 
BRANCH  22  27
ATOM     27  N   UNL     1       0.892   3.609  -1.812  1.00  0.00    -0.327 N 
ATOM     28  C   UNL     1      -0.368   2.867  -1.734  1.00  0.00     0.273 C 
ATOM     29  C   UNL     1       0.727   4.942  -2.397  1.00  0.00     0.273 C 
ATOM     30  H   UNL     1       1.507   3.081  -2.448  1.00  0.00     0.348 HD
ATOM     31  C   UNL     1      -0.786   2.402  -3.134  1.00  0.00     0.131 C 
ATOM     32  C   UNL     1       0.491   4.821  -3.907  1.00  0.00     0.131 C 
ATOM     33  S   UNL     1      -1.039   3.873  -4.174  1.00  0.00    -0.150 SA
ENDBRANCH  22  27
ENDBRANCH  21  22
ENDBRANCH   3  21
TORSDOF 5
