REMARK SMILES CC[C@@H](C)Cc1ccc2c(c1O)C(=O)O[C@H](C[C@H](/C=C\C=C\C=C/c1coc(C[C@@H](O)[C@@H](C)[C@@H](O)CC)n1)OC)C2
REMARK SMILES IDX 21 1 22 2 20 3 19 4 18 5 17 6 16 7 6 8 11 9 7 10 10 11 8 12
REMARK SMILES IDX 9 13 13 14 41 15 14 16 15 17 5 18 3 19 4 20 2 21 1 22 12 23
REMARK SMILES IDX 39 25 40 26 23 27 24 28 25 29 38 30 26 31 28 32 27 33 29 34
REMARK SMILES IDX 30 35 32 36 33 37 34 38 36 39 37 40 35 41 31 43
REMARK H PARENT 12 24 35 42 31 44
REMARK Flexibility Score: inf
ROOT
ATOM      1  C   UNL     1      -0.016   0.027   3.228  1.00  0.00    -0.000 C 
ATOM      2  C   UNL     1       0.089  -0.631   4.406  1.00  0.00     0.000 C 
ENDROOT
BRANCH   1   3
ATOM      3  C   UNL     1      -1.335   0.362   2.692  1.00  0.00    -0.002 C 
ATOM      4  C   UNL     1      -1.442   0.923   1.486  1.00  0.00     0.005 C 
BRANCH   4   5
ATOM      5  C   UNL     1      -0.219   1.092   0.622  1.00  0.00     0.144 C 
BRANCH   5   6
ATOM      6  C   UNL     1      -0.377   0.261  -0.653  1.00  0.00     0.082 C 
BRANCH   6   7
ATOM      7  C   UNL     1      -1.627   0.717  -1.408  1.00  0.00     0.184 C 
ATOM      8  C   UNL     1      -4.871   1.461  -5.188  1.00  0.00    -0.005 A 
ATOM      9  C   UNL     1      -4.224   2.291  -4.284  1.00  0.00     0.133 A 
ATOM     10  C   UNL     1      -4.539   0.122  -5.255  1.00  0.00     0.008 A 
ATOM     11  C   UNL     1      -3.237   1.761  -3.446  1.00  0.00     0.105 A 
ATOM     12  C   UNL     1      -3.561  -0.403  -4.427  1.00  0.00     0.005 A 
ATOM     13  C   UNL     1      -2.905   0.407  -3.523  1.00  0.00    -0.026 A 
ATOM     14  C   UNL     1      -2.537   2.626  -2.473  1.00  0.00     0.342 C 
ATOM     15  C   UNL     1      -1.836  -0.172  -2.634  1.00  0.00     0.082 C 
ATOM     16  O   UNL     1      -2.911   3.761  -2.250  1.00  0.00    -0.246 OA
ATOM     17  O   UNL     1      -1.459   2.099  -1.839  1.00  0.00    -0.458 OA
BRANCH   8  18
ATOM     18  C   UNL     1      -5.936   2.019  -6.096  1.00  0.00     0.042 C 
BRANCH  18  19
ATOM     19  C   UNL     1      -7.247   2.161  -5.320  1.00  0.00    -0.010 C 
ATOM     20  C   UNL     1      -7.762   0.774  -4.931  1.00  0.00     0.008 C 
BRANCH  19  21
ATOM     21  C   UNL     1      -8.285   2.864  -6.196  1.00  0.00     0.000 C 
ATOM     22  C   UNL     1      -9.554   3.117  -5.379  1.00  0.00     0.004 C 
ENDBRANCH  19  21
ENDBRANCH  18  19
ENDBRANCH   8  18
BRANCH   9  23
ATOM     23  O   UNL     1      -4.546   3.607  -4.213  1.00  0.00    -0.507 OA
ATOM     24  H   UNL     1      -5.520   3.620  -4.038  1.00  0.00     0.293 HD
ENDBRANCH   9  23
ENDBRANCH   6   7
ENDBRANCH   5   6
BRANCH   5  25
ATOM     25  O   UNL     1      -0.067   2.470   0.276  1.00  0.00    -0.377 OA
ATOM     26  C   UNL     1       1.293   2.896   0.171  1.00  0.00     0.195 C 
ENDBRANCH   5  25
ENDBRANCH   4   5
ENDBRANCH   1   3
BRANCH   2  27
ATOM     27  C   UNL     1       1.364  -0.954   4.924  1.00  0.00     0.002 C 
ATOM     28  C   UNL     1       1.473  -1.521   6.146  1.00  0.00     0.032 C 
BRANCH  28  29
ATOM     29  C   UNL     1       0.264  -1.928   6.878  1.00  0.00     0.102 A 
ATOM     30  N   UNL     1      -1.024  -1.711   6.497  1.00  0.00    -0.214 NA
ATOM     31  C   UNL     1       0.223  -2.599   8.063  1.00  0.00     0.225 A 
ATOM     32  C   UNL     1      -1.813  -2.214   7.399  1.00  0.00     0.197 A 
ATOM     33  O   UNL     1      -1.077  -2.763   8.374  1.00  0.00    -0.448 OA
BRANCH  32  34
ATOM     34  C   UNL     1      -3.319  -2.186   7.354  1.00  0.00     0.129 C 
BRANCH  34  35
ATOM     35  C   UNL     1      -3.832  -3.435   6.634  1.00  0.00     0.129 C 
BRANCH  35  36
ATOM     36  C   UNL     1      -5.351  -3.346   6.478  1.00  0.00     0.044 C 
ATOM     37  C   UNL     1      -5.708  -2.103   5.661  1.00  0.00     0.013 C 
BRANCH  36  38
ATOM     38  C   UNL     1      -5.864  -4.595   5.758  1.00  0.00     0.119 C 
BRANCH  38  39
ATOM     39  C   UNL     1      -7.383  -4.506   5.602  1.00  0.00     0.029 C 
ATOM     40  C   UNL     1      -7.881  -5.692   4.774  1.00  0.00     0.006 C 
ENDBRANCH  38  39
BRANCH  38  41
ATOM     41  O   UNL     1      -5.530  -5.756   6.521  1.00  0.00    -0.393 OA
ATOM     42  H   UNL     1      -5.950  -5.695   7.416  1.00  0.00     0.210 HD
ENDBRANCH  38  41
ENDBRANCH  36  38
ENDBRANCH  35  36
BRANCH  35  43
ATOM     43  O   UNL     1      -3.498  -4.596   7.397  1.00  0.00    -0.392 OA
ATOM     44  H   UNL     1      -3.918  -4.535   8.292  1.00  0.00     0.210 HD
ENDBRANCH  35  43
ENDBRANCH  34  35
ENDBRANCH  32  34
ENDBRANCH  28  29
ENDBRANCH   2  27
TORSDOF 18
