REMARK SMILES O=C(N[C@@H]1c2ccccc2C2(CC[NH+](Cc3cccc(C(F)(F)F)c3)CC2)[C@H]1O)c1ccccc1
REMARK SMILES IDX 4 1 5 2 6 3 7 4 8 5 9 6 10 7 11 8 28 9 12 10 13 11 26 12
REMARK SMILES IDX 27 13 14 14 3 16 2 17 1 18 30 20 33 21 34 22 32 23 35 24
REMARK SMILES IDX 31 25 29 26 15 28 16 29 25 30 17 31 20 32 18 33 19 34 21 35
REMARK SMILES IDX 22 36 23 37 24 38
REMARK H PARENT 14 15 3 19 29 27
REMARK Flexibility Score: inf
ROOT
ATOM      1  C   UNL     1       3.743   8.458  -4.325  1.00  0.00     0.142 C 
ATOM      2  C   UNL     1       4.022   7.581  -5.528  1.00  0.00    -0.019 A 
ATOM      3  C   UNL     1       4.451   7.915  -6.801  1.00  0.00     0.006 A 
ATOM      4  C   UNL     1       4.642   6.932  -7.752  1.00  0.00     0.000 A 
ATOM      5  C   UNL     1       4.404   5.608  -7.431  1.00  0.00     0.000 A 
ATOM      6  C   UNL     1       3.977   5.272  -6.162  1.00  0.00     0.005 A 
ATOM      7  C   UNL     1       3.784   6.257  -5.207  1.00  0.00    -0.033 A 
ATOM      8  C   UNL     1       3.327   6.159  -3.771  1.00  0.00     0.035 C 
ATOM      9  C   UNL     1       2.898   7.583  -3.374  1.00  0.00     0.152 C 
ATOM     10  C   UNL     1       4.474   5.690  -2.879  1.00  0.00     0.076 C 
ATOM     11  C   UNL     1       3.975   5.567  -1.436  1.00  0.00     0.263 C 
ATOM     12  C   UNL     1       1.719   5.097  -2.187  1.00  0.00     0.263 C 
ATOM     13  C   UNL     1       2.142   5.204  -3.655  1.00  0.00     0.076 C 
ATOM     14  N   UNL     1       2.863   4.595  -1.396  1.00  0.00    -0.331 N 
ATOM     15  H   UNL     1       3.184   3.704  -1.802  1.00  0.00     0.348 HD
ENDROOT
BRANCH   1  16
ATOM     16  N   UNL     1       2.987   9.646  -4.728  1.00  0.00    -0.343 N 
ATOM     17  C   UNL     1       3.639  10.761  -5.113  1.00  0.00     0.251 C 
ATOM     18  O   UNL     1       4.854  10.781  -5.127  1.00  0.00    -0.269 OA
ATOM     19  H   UNL     1       1.957   9.630  -4.716  1.00  0.00     0.164 HD
BRANCH  17  20
ATOM     20  C   UNL     1       2.876  11.961  -5.519  1.00  0.00     0.039 A 
ATOM     21  C   UNL     1       1.446  14.207  -6.282  1.00  0.00     0.000 A 
ATOM     22  C   UNL     1       0.774  13.064  -5.887  1.00  0.00     0.001 A 
ATOM     23  C   UNL     1       2.830  14.232  -6.298  1.00  0.00     0.001 A 
ATOM     24  C   UNL     1       1.480  11.940  -5.511  1.00  0.00     0.014 A 
ATOM     25  C   UNL     1       3.548  13.117  -5.919  1.00  0.00     0.014 A 
ENDBRANCH  17  20
ENDBRANCH   1  16
BRANCH   9  26
ATOM     26  O   UNL     1       3.228   7.851  -2.009  1.00  0.00    -0.390 OA
ATOM     27  H   UNL     1       3.055   8.807  -1.820  1.00  0.00     0.211 HD
ENDBRANCH   9  26
BRANCH  14  28
ATOM     28  C   UNL     1       2.445   4.363   0.003  1.00  0.00     0.299 C 
BRANCH  28  29
ATOM     29  C   UNL     1       1.151   3.592   0.010  1.00  0.00     0.007 A 
ATOM     30  C   UNL     1       1.169   2.210   0.003  1.00  0.00     0.022 A 
ATOM     31  C   UNL     1      -0.056   4.267   0.025  1.00  0.00     0.009 A 
ATOM     32  C   UNL     1      -0.018   1.503   0.010  1.00  0.00     0.056 A 
ATOM     33  C   UNL     1      -1.243   3.560   0.031  1.00  0.00     0.001 A 
ATOM     34  C   UNL     1      -1.225   2.178   0.020  1.00  0.00     0.013 A 
BRANCH  32  35
ATOM     35  C   UNL     1       0.002  -0.004   0.002  1.00  0.00     0.416 C 
ATOM     36  F   UNL     1       0.021  -0.477   1.318  1.00  0.00    -0.166 F 
ATOM     37  F   UNL     1      -1.140  -0.482  -0.649  1.00  0.00    -0.166 F 
ATOM     38  F   UNL     1       1.144  -0.451  -0.671  1.00  0.00    -0.166 F 
ENDBRANCH  32  35
ENDBRANCH  28  29
ENDBRANCH  14  28
TORSDOF 6
