REMARK SMILES CCCCC[C@@H](CC)Nc1nc(Cl)c(-c2ccccc2)n(CC(=O)NCc2ccc(C(N)=[NH2+])cc2)c1=O
REMARK SMILES IDX 10 1 36 2 37 3 21 4 14 5 12 6 11 7 13 8 9 9 6 11 5 12 4 13
REMARK SMILES IDX 3 14 2 15 1 16 7 17 8 18 22 19 23 20 24 21 25 22 26 24 27 25
REMARK SMILES IDX 35 26 28 27 34 28 29 29 30 30 31 31 32 32 33 33 15 38 20 39
REMARK SMILES IDX 16 40 19 41 17 42 18 43
REMARK H PARENT 9 10 25 23 32 34 32 35 33 36 33 37
REMARK Flexibility Score: inf
ROOT
ATOM      1  C   UNL     1       0.185   6.798  -1.379  1.00  0.00     0.194 A 
ATOM      2  C   UNL     1       1.644   6.772  -1.519  1.00  0.00     0.294 A 
ATOM      3  O   UNL     1       2.285   5.799  -1.162  1.00  0.00    -0.265 OA
ATOM      4  N   UNL     1       2.263   7.847  -2.055  1.00  0.00    -0.293 N 
ATOM      5  C   UNL     1       1.509   8.928  -2.441  1.00  0.00     0.089 A 
ATOM      6  C   UNL     1       0.142   8.913  -2.287  1.00  0.00     0.156 A 
ATOM      7  N   UNL     1      -0.486   7.864  -1.766  1.00  0.00    -0.211 NA
ATOM      8  Cl  UNL     1      -0.783  10.296  -2.784  1.00  0.00    -0.060 Cl
ENDROOT
BRANCH   1   9
ATOM      9  N   UNL     1      -0.485   5.710  -0.837  1.00  0.00    -0.363 N 
ATOM     10  H   UNL     1       0.043   4.878  -0.535  1.00  0.00     0.162 HD
BRANCH   9  11
ATOM     11  C   UNL     1      -1.942   5.743  -0.694  1.00  0.00     0.080 C 
BRANCH  11  12
ATOM     12  C   UNL     1      -2.487   4.314  -0.685  1.00  0.00     0.025 C 
BRANCH  12  13
ATOM     13  C   UNL     1      -2.229   3.661  -2.044  1.00  0.00     0.002 C 
BRANCH  13  14
ATOM     14  C   UNL     1      -2.773   2.231  -2.035  1.00  0.00    -0.000 C 
BRANCH  14  15
ATOM     15  C   UNL     1      -2.515   1.579  -3.395  1.00  0.00    -0.003 C 
ATOM     16  C   UNL     1      -3.060   0.149  -3.386  1.00  0.00     0.004 C 
ENDBRANCH  14  15
ENDBRANCH  13  14
ENDBRANCH  12  13
ENDBRANCH  11  12
BRANCH  11  17
ATOM     17  C   UNL     1      -2.310   6.437   0.619  1.00  0.00     0.021 C 
ATOM     18  C   UNL     1      -1.875   7.903   0.561  1.00  0.00     0.006 C 
ENDBRANCH  11  17
ENDBRANCH   9  11
ENDBRANCH   1   9
BRANCH   4  19
ATOM     19  C   UNL     1       3.719   7.862  -2.217  1.00  0.00     0.226 C 
BRANCH  19  20
ATOM     20  C   UNL     1       4.364   8.287  -0.924  1.00  0.00     0.240 C 
ATOM     21  O   UNL     1       3.676   8.553   0.039  1.00  0.00    -0.273 OA
ATOM     22  N   UNL     1       5.706   8.373  -0.836  1.00  0.00    -0.350 N 
ATOM     23  H   UNL     1       6.291   8.148  -1.654  1.00  0.00     0.163 HD
BRANCH  22  24
ATOM     24  C   UNL     1       6.334   8.787   0.421  1.00  0.00     0.151 C 
BRANCH  24  25
ATOM     25  C   UNL     1       7.831   8.802   0.255  1.00  0.00    -0.029 A 
ATOM     26  C   UNL     1       8.466   9.955  -0.173  1.00  0.00     0.006 A 
ATOM     27  C   UNL     1       8.567   7.665   0.536  1.00  0.00     0.006 A 
ATOM     28  C   UNL     1       9.837   9.975  -0.328  1.00  0.00     0.017 A 
ATOM     29  C   UNL     1       9.938   7.671   0.381  1.00  0.00     0.017 A 
ATOM     30  C   UNL     1      10.583   8.830  -0.051  1.00  0.00     0.063 A 
BRANCH  30  31
ATOM     31  C   UNL     1      12.055   8.844  -0.215  1.00  0.00     0.270 C 
ATOM     32  N   UNL     1      12.790   7.711   0.059  1.00  0.00    -0.287 N 
ATOM     33  N   UNL     1      12.604   9.976  -0.629  1.00  0.00    -0.287 N 
ATOM     34  H   UNL     1      12.316   6.854   0.379  1.00  0.00     0.302 HD
ATOM     35  H   UNL     1      13.813   7.721  -0.055  1.00  0.00     0.302 HD
ATOM     36  H   UNL     1      12.045  10.817  -0.831  1.00  0.00     0.302 HD
ATOM     37  H   UNL     1      13.626  10.008  -0.750  1.00  0.00     0.302 HD
ENDBRANCH  30  31
ENDBRANCH  24  25
ENDBRANCH  22  24
ENDBRANCH  19  20
ENDBRANCH   4  19
BRANCH   5  38
ATOM     38  C   UNL     1       2.169  10.113  -3.023  1.00  0.00     0.001 A 
ATOM     39  C   UNL     1       1.791  10.578  -4.285  1.00  0.00     0.010 A 
ATOM     40  C   UNL     1       3.171  10.778  -2.313  1.00  0.00     0.010 A 
ATOM     41  C   UNL     1       2.412  11.685  -4.823  1.00  0.00     0.001 A 
ATOM     42  C   UNL     1       3.788  11.881  -2.866  1.00  0.00     0.001 A 
ATOM     43  C   UNL     1       3.408  12.336  -4.116  1.00  0.00     0.000 A 
ENDBRANCH   5  38
TORSDOF 13
