REMARK SMILES O=C(c1ccc(Cl)cc1)N1CCC[C@@H](c2nc(O)c3nnn(Cc4ccccc4Cl)c3n2)C1
REMARK SMILES IDX 14 1 13 2 12 3 11 4 10 5 33 6 15 7 22 8 21 9 31 10 20 11
REMARK SMILES IDX 32 12 19 13 17 14 16 15 23 16 24 17 26 18 25 19 27 20 28 21
REMARK SMILES IDX 29 22 30 23 18 24 2 26 1 27 3 28 9 29 4 30 8 31 5 32 6 33
REMARK SMILES IDX 7 34
REMARK H PARENT 18 25
REMARK Flexibility Score: inf
ROOT
ATOM      1  C   UNL     1      -1.699   1.520   0.115  1.00  0.00     0.077 C 
ATOM      2  C   UNL     1      -2.040   2.095  -1.262  1.00  0.00     0.015 C 
ATOM      3  C   UNL     1      -3.403   2.787  -1.204  1.00  0.00     0.022 C 
ATOM      4  C   UNL     1      -3.343   3.942  -0.199  1.00  0.00     0.120 C 
ATOM      5  N   UNL     1      -2.875   3.421   1.092  1.00  0.00    -0.338 N 
ATOM      6  C   UNL     1      -1.619   2.660   1.134  1.00  0.00     0.131 C 
ENDROOT
BRANCH   1   7
ATOM      7  C   UNL     1      -0.371   0.810   0.049  1.00  0.00     0.139 A 
ATOM      8  N   UNL     1       1.208  -2.426   0.529  1.00  0.00    -0.222 N 
ATOM      9  N   UNL     1       2.590  -2.489   0.294  1.00  0.00    -0.064 NA
ATOM     10  C   UNL     1       0.829  -1.134   0.292  1.00  0.00     0.186 A 
ATOM     11  N   UNL     1       3.016  -1.327  -0.059  1.00  0.00    -0.123 NA
ATOM     12  N   UNL     1      -0.322  -0.471   0.344  1.00  0.00    -0.211 NA
ATOM     13  C   UNL     1       1.999  -0.449  -0.083  1.00  0.00     0.193 A 
ATOM     14  C   UNL     1       1.892   0.921  -0.388  1.00  0.00     0.245 A 
ATOM     15  N   UNL     1       0.700   1.496  -0.308  1.00  0.00    -0.196 NA
BRANCH   8  16
ATOM     16  C   UNL     1       0.341  -3.530   0.949  1.00  0.00     0.185 C 
BRANCH  16  17
ATOM     17  C   UNL     1      -0.205  -4.231  -0.268  1.00  0.00    -0.008 A 
ATOM     18  C   UNL     1      -0.131  -6.056  -1.817  1.00  0.00     0.000 A 
ATOM     19  C   UNL     1       0.369  -5.412  -0.700  1.00  0.00     0.007 A 
ATOM     20  C   UNL     1      -1.205  -5.519  -2.502  1.00  0.00     0.002 A 
ATOM     21  C   UNL     1      -1.779  -4.338  -2.071  1.00  0.00     0.021 A 
ATOM     22  C   UNL     1      -1.282  -3.696  -0.950  1.00  0.00     0.046 A 
ATOM     23  Cl  UNL     1      -2.008  -2.216  -0.404  1.00  0.00    -0.084 Cl
ENDBRANCH  16  17
ENDBRANCH   8  16
BRANCH  14  24
ATOM     24  O   UNL     1       2.982   1.635  -0.756  1.00  0.00    -0.492 OA
ATOM     25  H   UNL     1       3.347   1.148  -1.536  1.00  0.00     0.295 HD
ENDBRANCH  14  24
ENDBRANCH   1   7
BRANCH   5  26
ATOM     26  C   UNL     1      -3.585   3.637   2.217  1.00  0.00     0.253 C 
ATOM     27  O   UNL     1      -3.245   3.113   3.260  1.00  0.00    -0.269 OA
BRANCH  26  28
ATOM     28  C   UNL     1      -4.776   4.511   2.183  1.00  0.00     0.040 A 
ATOM     29  C   UNL     1      -5.927   4.155   2.889  1.00  0.00     0.015 A 
ATOM     30  C   UNL     1      -4.753   5.699   1.450  1.00  0.00     0.015 A 
ATOM     31  C   UNL     1      -7.036   4.975   2.853  1.00  0.00     0.021 A 
ATOM     32  C   UNL     1      -5.870   6.507   1.416  1.00  0.00     0.021 A 
ATOM     33  C   UNL     1      -7.009   6.149   2.119  1.00  0.00     0.041 A 
ATOM     34  Cl  UNL     1      -8.409   7.175   2.077  1.00  0.00    -0.084 Cl
ENDBRANCH  26  28
ENDBRANCH   5  26
TORSDOF 6
