REMARK SMILES CC(C)OP(=O)(OC(C)C)[C@H](C(C)C)N(C)/C(N)=[NH+]/C1=NC(C(F)(F)F)(C(F)(F)F)N=C(C(C(F)(F)F)C(F)(F)F)O1
REMARK SMILES IDX 15 1 16 2 11 3 12 4 13 5 14 6 5 7 6 8 4 9 2 10 1 11 3 12
REMARK SMILES IDX 7 13 8 14 9 15 10 16 17 17 19 18 18 19 20 20 42 24 21 25
REMARK SMILES IDX 32 26 22 27 31 28 33 29 34 30 35 31 36 32 37 33 38 34 39 35
REMARK SMILES IDX 40 36 41 37 23 38 24 39 25 40 26 41 27 42 28 43 29 44 30 45
REMARK H PARENT 19 21 18 22 18 23
REMARK Flexibility Score: inf
ROOT
ATOM      1  N   UNL     1       0.319   0.337  -0.104  1.00  0.00    -0.272 N 
ATOM      2  C   UNL     1       0.447   1.795  -0.171  1.00  0.00     0.220 C 
ENDROOT
BRANCH   1   3
ATOM      3  C   UNL     1      -0.044  -0.422  -1.304  1.00  0.00     0.249 C 
BRANCH   3   4
ATOM      4  C   UNL     1      -1.559  -0.361  -1.507  1.00  0.00     0.029 C 
ATOM      5  C   UNL     1      -1.938  -1.158  -2.757  1.00  0.00     0.011 C 
ATOM      6  C   UNL     1      -2.262  -0.960  -0.287  1.00  0.00     0.011 C 
ENDBRANCH   3   4
BRANCH   3   7
ATOM      7  P   UNL     1       0.794   0.298  -2.754  1.00  0.00     0.364 P 
ATOM      8  O   UNL     1       2.192   0.629  -2.402  1.00  0.00    -0.256 OA
BRANCH   7   9
ATOM      9  O   UNL     1       0.783  -0.766  -3.962  1.00  0.00    -0.304 OA
BRANCH   9  10
ATOM     10  C   UNL     1       1.591  -1.944  -3.970  1.00  0.00     0.122 C 
ATOM     11  C   UNL     1       0.703  -3.171  -4.191  1.00  0.00     0.039 C 
ATOM     12  C   UNL     1       2.621  -1.850  -5.097  1.00  0.00     0.039 C 
ENDBRANCH   9  10
ENDBRANCH   7   9
BRANCH   7  13
ATOM     13  O   UNL     1       0.023   1.636  -3.210  1.00  0.00    -0.304 OA
BRANCH  13  14
ATOM     14  C   UNL     1       0.458   2.451  -4.300  1.00  0.00     0.122 C 
ATOM     15  C   UNL     1      -0.688   2.619  -5.300  1.00  0.00     0.039 C 
ATOM     16  C   UNL     1       0.880   3.824  -3.773  1.00  0.00     0.039 C 
ENDBRANCH  13  14
ENDBRANCH   7  13
ENDBRANCH   3   7
ENDBRANCH   1   3
BRANCH   1  17
ATOM     17  C   UNL     1       0.537  -0.315   1.077  1.00  0.00     0.310 C 
ATOM     18  N   UNL     1       0.864   0.370   2.158  1.00  0.00    -0.207 N 
ATOM     19  N   UNL     1       0.418  -1.674   1.139  1.00  0.00    -0.310 N 
ATOM     20  C   UNL     1       1.188  -0.279   3.293  1.00  0.00     0.404 C 
ATOM     21  H   UNL     1       0.870   1.399   2.133  1.00  0.00     0.248 HD
ATOM     22  H   UNL     1       0.163  -2.208   0.296  1.00  0.00     0.232 HD
ATOM     23  H   UNL     1       0.583  -2.166   2.029  1.00  0.00     0.232 HD
ATOM     24  O   UNL     1       0.410  -0.135   4.388  1.00  0.00    -0.392 OA
ATOM     25  N   UNL     1       2.245  -1.041   3.317  1.00  0.00    -0.088 NA
ATOM     26  C   UNL     1       0.511  -1.042   5.377  1.00  0.00     0.221 C 
ATOM     27  C   UNL     1       2.641  -1.753   4.530  1.00  0.00     0.392 C 
ATOM     28  N   UNL     1       1.532  -1.815   5.477  1.00  0.00    -0.195 NA
BRANCH  26  29
ATOM     29  C   UNL     1      -0.598  -1.153   6.391  1.00  0.00     0.285 C 
BRANCH  29  30
ATOM     30  C   UNL     1      -1.694  -2.073   5.849  1.00  0.00     0.409 C 
ATOM     31  F   UNL     1      -1.158  -3.342   5.604  1.00  0.00    -0.170 F 
ATOM     32  F   UNL     1      -2.724  -2.176   6.790  1.00  0.00    -0.170 F 
ATOM     33  F   UNL     1      -2.201  -1.543   4.658  1.00  0.00    -0.170 F 
ENDBRANCH  29  30
BRANCH  29  34
ATOM     34  C   UNL     1      -0.043  -1.733   7.694  1.00  0.00     0.409 C 
ATOM     35  F   UNL     1       0.959  -0.891   8.189  1.00  0.00    -0.170 F 
ATOM     36  F   UNL     1      -1.073  -1.836   8.634  1.00  0.00    -0.170 F 
ATOM     37  F   UNL     1       0.493  -3.002   7.448  1.00  0.00    -0.170 F 
ENDBRANCH  29  34
ENDBRANCH  26  29
BRANCH  27  38
ATOM     38  C   UNL     1       3.821  -1.031   5.182  1.00  0.00     0.456 C 
ATOM     39  F   UNL     1       4.221  -1.729   6.326  1.00  0.00    -0.165 F 
ATOM     40  F   UNL     1       4.887  -0.969   4.278  1.00  0.00    -0.165 F 
ATOM     41  F   UNL     1       3.436   0.266   5.537  1.00  0.00    -0.165 F 
ENDBRANCH  27  38
BRANCH  27  42
ATOM     42  C   UNL     1       3.064  -3.175   4.157  1.00  0.00     0.456 C 
ATOM     43  F   UNL     1       1.984  -3.846   3.573  1.00  0.00    -0.165 F 
ATOM     44  F   UNL     1       4.127  -3.123   3.249  1.00  0.00    -0.165 F 
ATOM     45  F   UNL     1       3.469  -3.858   5.309  1.00  0.00    -0.165 F 
ENDBRANCH  27  42
ENDBRANCH   1  17
TORSDOF 13
