REMARK SMILES CCOc1ccc([C@@H](/[NH+]=c2\cccc(C)[nH]2)c2ccc3ccc(C)nc3c2O)cc1
REMARK SMILES IDX 4 1 5 2 6 3 7 4 29 5 30 6 3 7 2 8 1 9 8 10 17 11 27 12 18 13
REMARK SMILES IDX 26 14 19 15 20 16 25 17 21 18 23 19 22 20 24 21 28 22 9 24
REMARK SMILES IDX 10 25 16 27 11 28 14 29 12 31 13 32 15 33
REMARK H PARENT 28 23 9 26 16 30
REMARK Flexibility Score: inf
ROOT
ATOM      1  C   UNL     1      -1.191   3.927  -3.576  1.00  0.00     0.119 A 
ATOM      2  C   UNL     1      -1.792   2.691  -3.384  1.00  0.00     0.047 A 
ATOM      3  C   UNL     1      -1.439   1.913  -2.298  1.00  0.00     0.012 A 
ATOM      4  C   UNL     1      -0.488   2.366  -1.402  1.00  0.00     0.001 A 
ATOM      5  C   UNL     1       0.108   3.600  -1.588  1.00  0.00     0.012 A 
ATOM      6  C   UNL     1      -0.237   4.379  -2.676  1.00  0.00     0.047 A 
ENDROOT
BRANCH   1   7
ATOM      7  O   UNL     1      -1.537   4.693  -4.643  1.00  0.00    -0.494 OA
BRANCH   7   8
ATOM      8  C   UNL     1      -0.878   5.954  -4.777  1.00  0.00     0.226 C 
ATOM      9  C   UNL     1      -1.394   6.669  -6.028  1.00  0.00     0.049 C 
ENDBRANCH   7   8
ENDBRANCH   1   7
BRANCH   4  10
ATOM     10  C   UNL     1      -0.105   1.517  -0.218  1.00  0.00     0.238 C 
BRANCH  10  11
ATOM     11  C   UNL     1      -0.823   2.014   1.010  1.00  0.00     0.045 A 
ATOM     12  C   UNL     1      -2.092   1.579   1.269  1.00  0.00     0.149 A 
ATOM     13  C   UNL     1      -0.182   2.904   1.866  1.00  0.00     0.013 A 
ATOM     14  C   UNL     1      -2.767   2.042   2.418  1.00  0.00     0.113 A 
ATOM     15  C   UNL     1      -0.805   3.376   2.981  1.00  0.00     0.011 A 
ATOM     16  C   UNL     1      -2.110   2.952   3.282  1.00  0.00     0.004 A 
ATOM     17  N   UNL     1      -4.008   1.636   2.699  1.00  0.00    -0.249 NA
ATOM     18  C   UNL     1      -2.784   3.413   4.428  1.00  0.00     0.012 A 
ATOM     19  C   UNL     1      -4.640   2.062   3.766  1.00  0.00     0.038 A 
ATOM     20  C   UNL     1      -4.052   2.958   4.657  1.00  0.00     0.024 A 
ATOM     21  C   UNL     1      -6.039   1.571   4.036  1.00  0.00     0.067 C 
BRANCH  12  22
ATOM     22  O   UNL     1      -2.700   0.705   0.425  1.00  0.00    -0.505 OA
ATOM     23  H   UNL     1      -2.088  -0.071   0.378  1.00  0.00     0.293 HD
ENDBRANCH  12  22
ENDBRANCH  10  11
BRANCH  10  24
ATOM     24  N   UNL     1       1.375   1.663   0.004  1.00  0.00    -0.263 N 
ATOM     25  C   UNL     1       2.165   0.566   0.040  1.00  0.00     0.273 A 
ATOM     26  H   UNL     1       1.787   2.598   0.130  1.00  0.00     0.306 HD
ATOM     27  N   UNL     1       3.522   0.762   0.118  1.00  0.00    -0.245 N 
ATOM     28  C   UNL     1       1.651  -0.752  -0.000  1.00  0.00     0.098 A 
ATOM     29  C   UNL     1       4.370  -0.304   0.168  1.00  0.00     0.098 A 
ATOM     30  H   UNL     1       3.901   1.720   0.139  1.00  0.00     0.312 HD
ATOM     31  C   UNL     1       2.511  -1.802   0.045  1.00  0.00     0.012 A 
ATOM     32  C   UNL     1       3.894  -1.566   0.131  1.00  0.00     0.047 A 
ATOM     33  C   UNL     1       5.856  -0.070   0.260  1.00  0.00     0.093 C 
ENDBRANCH  10  24
ENDBRANCH   4  10
TORSDOF 6
