REMARK SMILES CCC(C)(C)n1nnnc1[C@@H](c1cc2ccc(C)cc2nc1O)N(Cc1cccnc1)Cc1ccco1
REMARK SMILES IDX 11 1 10 2 6 3 7 4 8 5 9 6 3 7 4 8 5 9 2 10 1 11 12 12 22 13
REMARK SMILES IDX 13 14 21 15 14 16 20 17 15 18 19 19 16 20 17 21 18 22 23 23
REMARK SMILES IDX 24 25 25 26 26 27 31 28 27 29 30 30 28 31 29 32 32 33 33 34
REMARK SMILES IDX 37 35 34 36 36 37 35 38
REMARK H PARENT 23 24
REMARK Flexibility Score: inf
ROOT
ATOM      1  C   UNL     1      -3.387   3.270   7.273  1.00  0.00     0.164 C 
ENDROOT
BRANCH   1   2
ATOM      2  C   UNL     1      -3.379   1.942   7.986  1.00  0.00     0.173 A 
ATOM      3  N   UNL     1      -3.440   0.724   7.417  1.00  0.00    -0.222 N 
ATOM      4  N   UNL     1      -3.404  -0.143   8.372  1.00  0.00    -0.044 NA
ATOM      5  N   UNL     1      -3.333   0.480   9.496  1.00  0.00    -0.024 NA
ATOM      6  N   UNL     1      -3.317   1.750   9.281  1.00  0.00    -0.112 NA
BRANCH   3   7
ATOM      7  C   UNL     1      -3.526   0.436   5.984  1.00  0.00     0.061 C 
ATOM      8  C   UNL     1      -4.607   1.316   5.351  1.00  0.00     0.037 C 
ATOM      9  C   UNL     1      -2.178   0.730   5.322  1.00  0.00     0.037 C 
BRANCH   7  10
ATOM     10  C   UNL     1      -3.884  -1.037   5.779  1.00  0.00     0.027 C 
ATOM     11  C   UNL     1      -3.974  -1.337   4.282  1.00  0.00     0.006 C 
ENDBRANCH   7  10
ENDBRANCH   3   7
ENDBRANCH   1   2
BRANCH   1  12
ATOM     12  C   UNL     1      -2.180   3.365   6.376  1.00  0.00     0.040 A 
ATOM     13  C   UNL     1      -0.895   3.408   6.930  1.00  0.00     0.216 A 
ATOM     14  C   UNL     1      -2.337   3.411   5.022  1.00  0.00     0.021 A 
ATOM     15  N   UNL     1       0.179   3.492   6.176  1.00  0.00    -0.213 NA
ATOM     16  C   UNL     1      -1.183   3.500   4.219  1.00  0.00     0.001 A 
ATOM     17  C   UNL     1       0.088   3.539   4.842  1.00  0.00     0.075 A 
ATOM     18  C   UNL     1      -1.271   3.551   2.819  1.00  0.00     0.010 A 
ATOM     19  C   UNL     1       1.240   3.629   4.041  1.00  0.00     0.032 A 
ATOM     20  C   UNL     1      -0.134   3.643   2.075  1.00  0.00     0.004 A 
ATOM     21  C   UNL     1       1.118   3.677   2.686  1.00  0.00    -0.049 A 
ATOM     22  C   UNL     1       2.357   3.774   1.833  1.00  0.00     0.044 C 
BRANCH  13  23
ATOM     23  O   UNL     1      -0.755   3.362   8.278  1.00  0.00    -0.493 OA
ATOM     24  H   UNL     1      -1.211   2.530   8.559  1.00  0.00     0.295 HD
ENDBRANCH  13  23
ENDBRANCH   1  12
BRANCH   1  25
ATOM     25  N   UNL     1      -4.609   3.362   6.446  1.00  0.00    -0.278 NA
BRANCH  25  26
ATOM     26  C   UNL     1      -5.808   3.295   7.308  1.00  0.00     0.123 C 
BRANCH  26  27
ATOM     27  C   UNL     1      -5.811   4.432   8.298  1.00  0.00    -0.016 A 
ATOM     28  C   UNL     1      -6.372   5.649   7.963  1.00  0.00     0.116 A 
ATOM     29  C   UNL     1      -5.257   4.267   9.558  1.00  0.00     0.008 A 
ATOM     30  N   UNL     1      -6.380   6.648   8.823  1.00  0.00    -0.264 NA
ATOM     31  C   UNL     1      -5.279   5.341  10.434  1.00  0.00     0.020 A 
ATOM     32  C   UNL     1      -5.857   6.529  10.028  1.00  0.00     0.111 A 
ENDBRANCH  26  27
ENDBRANCH  25  26
BRANCH  25  33
ATOM     33  C   UNL     1      -4.607   4.626   5.681  1.00  0.00     0.161 C 
BRANCH  33  34
ATOM     34  C   UNL     1      -5.601   4.511   4.554  1.00  0.00     0.117 A 
ATOM     35  O   UNL     1      -5.365   3.962   3.352  1.00  0.00    -0.468 OA
ATOM     36  C   UNL     1      -6.874   4.945   4.581  1.00  0.00     0.047 A 
ATOM     37  C   UNL     1      -6.478   4.029   2.603  1.00  0.00     0.195 A 
ATOM     38  C   UNL     1      -7.439   4.635   3.323  1.00  0.00     0.042 A 
ENDBRANCH  33  34
ENDBRANCH  25  33
ENDBRANCH   1  25
TORSDOF 10
