REMARK SMILES O=C(Nc1cccnc1)/C(=N/Nc1ccc2ccccc2c1)C(=O)c1ccccc1
REMARK SMILES IDX 10 1 11 2 23 3 24 4 25 5 28 6 29 7 27 8 30 9 26 10 2 11 1 12
REMARK SMILES IDX 3 13 4 15 9 16 5 17 8 18 6 19 7 20 12 21 13 23 22 24 14 25
REMARK SMILES IDX 21 26 15 27 16 28 20 29 17 30 19 31 18 32
REMARK H PARENT 3 14 12 22
REMARK Flexibility Score: inf
ROOT
ATOM      1  C   UNL     1       4.887   0.153  -0.077  1.00  0.00     0.196 C 
ATOM      2  N   UNL     1       4.763   1.464   0.007  1.00  0.00    -0.166 NA
ENDROOT
BRANCH   1   3
ATOM      3  C   UNL     1       3.690  -0.698  -0.088  1.00  0.00     0.218 C 
ATOM      4  O   UNL     1       3.209  -1.058  -1.146  1.00  0.00    -0.287 OA
BRANCH   3   5
ATOM      5  C   UNL     1       3.070  -1.118   1.187  1.00  0.00     0.024 A 
ATOM      6  C   UNL     1       1.909  -1.905   3.575  1.00  0.00     0.000 A 
ATOM      7  C   UNL     1       1.301  -2.227   2.374  1.00  0.00     0.001 A 
ATOM      8  C   UNL     1       3.094  -1.191   3.588  1.00  0.00     0.001 A 
ATOM      9  C   UNL     1       1.874  -1.838   1.181  1.00  0.00     0.012 A 
ATOM     10  C   UNL     1       3.678  -0.797   2.402  1.00  0.00     0.012 A 
ENDBRANCH   3   5
ENDBRANCH   1   3
BRANCH   1  11
ATOM     11  C   UNL     1       6.224  -0.455  -0.159  1.00  0.00     0.280 C 
ATOM     12  O   UNL     1       6.338  -1.664  -0.236  1.00  0.00    -0.267 OA
ATOM     13  N   UNL     1       7.322   0.326  -0.149  1.00  0.00    -0.319 N 
ATOM     14  H   UNL     1       7.224   1.351  -0.164  1.00  0.00     0.170 HD
BRANCH  13  15
ATOM     15  C   UNL     1       8.594  -0.255  -0.118  1.00  0.00     0.060 A 
ATOM     16  C   UNL     1       9.690   0.421  -0.637  1.00  0.00     0.137 A 
ATOM     17  C   UNL     1       8.780  -1.518   0.438  1.00  0.00     0.029 A 
ATOM     18  N   UNL     1      10.890  -0.124  -0.610  1.00  0.00    -0.263 NA
ATOM     19  C   UNL     1      10.057  -2.054   0.441  1.00  0.00     0.022 A 
ATOM     20  C   UNL     1      11.099  -1.320  -0.095  1.00  0.00     0.111 A 
ENDBRANCH  13  15
ENDBRANCH   1  11
BRANCH   2  21
ATOM     21  N   UNL     1       3.599   1.992   0.176  1.00  0.00    -0.278 N 
ATOM     22  H   UNL     1       2.776   1.390   0.323  1.00  0.00     0.190 HD
BRANCH  21  23
ATOM     23  C   UNL     1       3.453   3.379   0.160  1.00  0.00     0.057 A 
ATOM     24  C   UNL     1       2.226   3.940   0.444  1.00  0.00     0.036 A 
ATOM     25  C   UNL     1       4.556   4.189  -0.140  1.00  0.00     0.028 A 
ATOM     26  C   UNL     1       2.084   5.336   0.427  1.00  0.00    -0.016 A 
ATOM     27  C   UNL     1       4.442   5.542  -0.168  1.00  0.00     0.011 A 
ATOM     28  C   UNL     1       3.205   6.147   0.117  1.00  0.00    -0.018 A 
ATOM     29  C   UNL     1       0.849   5.946   0.711  1.00  0.00     0.009 A 
ATOM     30  C   UNL     1       3.059   7.545   0.102  1.00  0.00     0.009 A 
ATOM     31  C   UNL     1       0.746   7.303   0.686  1.00  0.00     0.001 A 
ATOM     32  C   UNL     1       1.848   8.100   0.382  1.00  0.00     0.001 A 
ENDBRANCH  21  23
ENDBRANCH   2  21
TORSDOF 6
