REMARK SMILES NC(=S)N/N=C1/C[C@H](n2nnn(-c3ccc(I)cc3)c2=S)[C@H]2CO[C@@H]1O2
REMARK SMILES IDX 8 1 7 2 6 3 5 4 25 5 24 6 23 7 22 8 26 9 9 10 12 11 11 12
REMARK SMILES IDX 20 13 10 14 21 15 13 16 14 17 15 18 19 19 16 20 18 21 17 22
REMARK SMILES IDX 4 23 2 25 3 26 1 27
REMARK H PARENT 4 24 1 28 1 29
REMARK Flexibility Score: inf
ROOT
ATOM      1  C   UNL     1      -0.768   1.601  -1.224  1.00  0.00     0.150 C 
ATOM      2  C   UNL     1      -0.013   1.086   0.008  1.00  0.00     0.089 C 
ATOM      3  C   UNL     1      -0.737   1.582   1.246  1.00  0.00     0.096 C 
ATOM      4  N   UNL     1      -0.106   2.081   2.242  1.00  0.00    -0.177 NA
ATOM      5  C   UNL     1      -2.256   1.453   1.236  1.00  0.00     0.298 C 
ATOM      6  O   UNL     1      -2.548   0.072   0.936  1.00  0.00    -0.344 OA
ATOM      7  C   UNL     1      -2.497  -0.058  -0.497  1.00  0.00     0.198 C 
ATOM      8  C   UNL     1      -2.272   1.375  -1.025  1.00  0.00     0.173 C 
ATOM      9  O   UNL     1      -2.711   2.200   0.081  1.00  0.00    -0.339 OA
ENDROOT
BRANCH   1  10
ATOM     10  N   UNL     1      -0.507   3.032  -1.396  1.00  0.00    -0.212 N 
ATOM     11  N   UNL     1       0.109   4.940  -2.207  1.00  0.00    -0.185 N 
ATOM     12  N   UNL     1      -0.450   5.135  -0.938  1.00  0.00    -0.041 NA
ATOM     13  C   UNL     1       0.062   3.617  -2.472  1.00  0.00     0.221 A 
ATOM     14  N   UNL     1      -0.807   4.045  -0.476  1.00  0.00    -0.045 NA
ATOM     15  S   UNL     1       0.615   2.835  -3.891  1.00  0.00    -0.037 S 
BRANCH  11  16
ATOM     16  C   UNL     1       0.623   5.936  -3.047  1.00  0.00     0.070 A 
ATOM     17  C   UNL     1       1.726   5.670  -3.847  1.00  0.00     0.029 A 
ATOM     18  C   UNL     1       2.228   6.652  -4.679  1.00  0.00     0.017 A 
ATOM     19  C   UNL     1       0.034   7.193  -3.078  1.00  0.00     0.029 A 
ATOM     20  C   UNL     1       1.639   7.903  -4.707  1.00  0.00     0.013 A 
ATOM     21  C   UNL     1       0.543   8.173  -3.907  1.00  0.00     0.017 A 
ATOM     22  I   UNL     1       2.408   9.393  -5.963  1.00  0.00    -0.044 I 
ENDBRANCH  11  16
ENDBRANCH   1  10
BRANCH   4  23
ATOM     23  N   UNL     1      -0.814   2.527   3.366  1.00  0.00    -0.254 N 
ATOM     24  H   UNL     1      -1.841   2.454   3.391  1.00  0.00     0.193 HD
BRANCH  23  25
ATOM     25  C   UNL     1      -0.150   3.053   4.415  1.00  0.00     0.184 C 
ATOM     26  S   UNL     1      -1.014   3.599   5.788  1.00  0.00    -0.040 S 
BRANCH  25  27
ATOM     27  N   UNL     1       1.194   3.150   4.382  1.00  0.00    -0.375 N 
ATOM     28  H   UNL     1       1.714   2.821   3.556  1.00  0.00     0.159 HD
ATOM     29  H   UNL     1       1.701   3.551   5.184  1.00  0.00     0.159 HD
ENDBRANCH  25  27
ENDBRANCH  23  25
ENDBRANCH   4  23
TORSDOF 5
