REMARK SMILES Cc1ccc(-c2nn(-c3ccccc3)cc2C[NH2+]Cc2ccc(N3CCNC(=O)C3)cc2)cc1C
REMARK SMILES IDX 18 1 17 4 16 5 6 6 7 7 8 8 15 9 5 10 1 11 2 12 34 13 3 14
REMARK SMILES IDX 33 15 35 16 4 17 9 18 14 19 10 20 13 21 11 22 12 23 19 24
REMARK SMILES IDX 20 25 32 26 21 27 31 28 22 29 23 30 24 31 30 32 25 33 28 34
REMARK SMILES IDX 26 35 27 36 29 37
REMARK H PARENT 18 2 18 3 27 38
REMARK Flexibility Score: inf
ROOT
ATOM      1  N   UNL     1       2.860   4.192  -1.388  1.00  0.00    -0.339 N 
ATOM      2  H   UNL     1       2.124   4.735  -1.862  1.00  0.00     0.346 HD
ATOM      3  H   UNL     1       2.978   3.294  -1.878  1.00  0.00     0.346 HD
ENDROOT
BRANCH   1   4
ATOM      4  C   UNL     1       4.122   4.941  -1.435  1.00  0.00     0.301 C 
BRANCH   4   5
ATOM      5  C   UNL     1       4.508   5.186  -2.871  1.00  0.00     0.053 A 
ATOM      6  C   UNL     1       3.986   6.189  -3.711  1.00  0.00     0.102 A 
ATOM      7  N   UNL     1       4.569   6.083  -4.886  1.00  0.00    -0.167 NA
ATOM      8  N   UNL     1       5.473   5.015  -4.830  1.00  0.00    -0.240 N 
ATOM      9  C   UNL     1       5.420   4.485  -3.580  1.00  0.00     0.125 A 
BRANCH   6  10
ATOM     10  C   UNL     1       2.958   7.192  -3.335  1.00  0.00     0.003 A 
ATOM     11  C   UNL     1      -0.004  10.079  -2.253  1.00  0.00     0.044 C 
ATOM     12  C   UNL     1       1.040   9.061  -2.634  1.00  0.00    -0.048 A 
ATOM     13  C   UNL     1       2.056   9.410  -3.505  1.00  0.00    -0.048 A 
ATOM     14  C   UNL     1       0.978   7.782  -2.112  1.00  0.00     0.004 A 
ATOM     15  C   UNL     1       3.018   8.483  -3.854  1.00  0.00     0.014 A 
ATOM     16  C   UNL     1       2.117  10.806  -4.070  1.00  0.00     0.044 C 
ATOM     17  C   UNL     1       1.932   6.846  -2.458  1.00  0.00     0.011 A 
ENDBRANCH   6  10
BRANCH   8  18
ATOM     18  C   UNL     1       6.293   4.574  -5.877  1.00  0.00     0.065 A 
ATOM     19  C   UNL     1       6.252   5.213  -7.109  1.00  0.00     0.028 A 
ATOM     20  C   UNL     1       7.154   3.502  -5.682  1.00  0.00     0.028 A 
ATOM     21  C   UNL     1       7.061   4.776  -8.139  1.00  0.00     0.002 A 
ATOM     22  C   UNL     1       7.956   3.066  -6.718  1.00  0.00     0.002 A 
ATOM     23  C   UNL     1       7.913   3.704  -7.944  1.00  0.00     0.000 A 
ENDBRANCH   8  18
ENDBRANCH   4   5
ENDBRANCH   1   4
BRANCH   1  24
ATOM     24  C   UNL     1       2.452   3.935  -0.000  1.00  0.00     0.297 C 
BRANCH  24  25
ATOM     25  C   UNL     1       1.156   3.166   0.008  1.00  0.00     0.006 A 
ATOM     26  C   UNL     1      -0.049   3.845   0.023  1.00  0.00     0.012 A 
ATOM     27  C   UNL     1       1.173   1.783   0.000  1.00  0.00     0.012 A 
ATOM     28  C   UNL     1      -1.239   3.144   0.031  1.00  0.00     0.026 A 
ATOM     29  C   UNL     1      -0.013   1.076   0.008  1.00  0.00     0.026 A 
ATOM     30  C   UNL     1      -1.224   1.755   0.017  1.00  0.00     0.037 A 
BRANCH  30  31
ATOM     31  N   UNL     1      -2.426   1.042   0.019  1.00  0.00    -0.360 N 
ATOM     32  C   UNL     1      -2.483   0.109   1.152  1.00  0.00     0.216 C 
ATOM     33  C   UNL     1      -3.580   1.955   0.055  1.00  0.00     0.138 C 
ATOM     34  C   UNL     1      -3.840  -0.531   1.222  1.00  0.00     0.239 C 
ATOM     35  C   UNL     1      -4.848   1.156  -0.255  1.00  0.00     0.137 C 
ATOM     36  N   UNL     1      -4.908  -0.034   0.590  1.00  0.00    -0.353 N 
ATOM     37  O   UNL     1      -3.973  -1.542   1.880  1.00  0.00    -0.273 OA
ATOM     38  H   UNL     1      -5.814  -0.510   0.704  1.00  0.00     0.163 HD
ENDBRANCH  30  31
ENDBRANCH  24  25
ENDBRANCH   1  24
TORSDOF 7
