REMARK SMILES COc1c(Br)cc(Br)cc1C[NH2+][C@@H](C)c1ccc(-n2ccnc2)cc1
REMARK SMILES IDX 12 1 13 4 14 5 15 6 25 7 16 8 24 9 17 10 18 11 19 12 23 13
REMARK SMILES IDX 20 14 22 15 21 16 11 17 10 18 3 19 9 20 4 21 7 22 6 23 5 24
REMARK SMILES IDX 8 25 2 26 1 27
REMARK H PARENT 12 2 12 3
REMARK Flexibility Score: inf
ROOT
ATOM      1  N   UNL     1       2.485  -6.535   0.839  1.00  0.00    -0.336 N 
ATOM      2  H   UNL     1       2.178  -5.970   1.644  1.00  0.00     0.347 HD
ATOM      3  H   UNL     1       1.653  -6.868   0.331  1.00  0.00     0.347 HD
ENDROOT
BRANCH   1   4
ATOM      4  C   UNL     1       3.300  -5.702  -0.056  1.00  0.00     0.210 C 
ATOM      5  C   UNL     1       3.229  -6.262  -1.478  1.00  0.00     0.081 C 
BRANCH   4   6
ATOM      6  C   UNL     1       2.774  -4.290  -0.045  1.00  0.00     0.009 A 
ATOM      7  C   UNL     1       1.410  -4.062  -0.030  1.00  0.00     0.012 A 
ATOM      8  C   UNL     1       3.656  -3.225  -0.049  1.00  0.00     0.012 A 
ATOM      9  C   UNL     1       0.925  -2.768  -0.015  1.00  0.00     0.027 A 
ATOM     10  C   UNL     1       3.177  -1.930  -0.038  1.00  0.00     0.027 A 
ATOM     11  C   UNL     1       1.809  -1.697  -0.024  1.00  0.00     0.046 A 
BRANCH  11  12
ATOM     12  N   UNL     1       1.320  -0.383  -0.013  1.00  0.00    -0.306 N 
ATOM     13  C   UNL     1       2.062   0.755  -0.014  1.00  0.00     0.204 A 
ATOM     14  C   UNL     1       0.002  -0.004   0.002  1.00  0.00     0.113 A 
ATOM     15  N   UNL     1       1.252   1.778  -0.000  1.00  0.00    -0.245 NA
ATOM     16  C   UNL     1      -0.016   1.342   0.009  1.00  0.00     0.131 A 
ENDBRANCH  11  12
ENDBRANCH   4   6
ENDBRANCH   1   4
BRANCH   1  17
ATOM     17  C   UNL     1       3.250  -7.692   1.324  1.00  0.00     0.301 C 
BRANCH  17  18
ATOM     18  C   UNL     1       2.383  -8.520   2.237  1.00  0.00     0.050 A 
ATOM     19  C   UNL     1       1.452  -9.398   1.702  1.00  0.00     0.141 A 
ATOM     20  C   UNL     1       2.511  -8.402   3.608  1.00  0.00     0.029 A 
ATOM     21  C   UNL     1       0.658 -10.164   2.545  1.00  0.00     0.061 A 
ATOM     22  C   UNL     1       1.716  -9.162   4.446  1.00  0.00     0.019 A 
ATOM     23  C   UNL     1       0.789 -10.042   3.915  1.00  0.00     0.035 A 
ATOM     24  Br  UNL     1      -0.608 -11.366   1.819  1.00  0.00    -0.047 Br
ATOM     25  Br  UNL     1       1.893  -8.997   6.322  1.00  0.00    -0.051 Br
BRANCH  19  26
ATOM     26  O   UNL     1       1.320  -9.511   0.353  1.00  0.00    -0.495 OA
ATOM     27  C   UNL     1       2.133 -10.490  -0.298  1.00  0.00     0.278 C 
ENDBRANCH  19  26
ENDBRANCH  17  18
ENDBRANCH   1  17
TORSDOF 6
