REMARK SMILES CSc1nc(SCC(N)=O)c2sc3nc(CC(C)C)c4c(c3c2n1)CC(C)(C)OC4
REMARK SMILES IDX 15 1 20 2 21 3 22 4 23 5 11 6 5 7 4 8 3 9 24 10 12 11 13 12
REMARK SMILES IDX 14 13 25 14 26 15 29 16 30 17 27 18 28 19 16 20 17 21 18 22
REMARK SMILES IDX 19 23 6 24 7 25 8 26 10 27 9 28 2 31 1 32
REMARK H PARENT 9 29 9 30
REMARK Flexibility Score: inf
ROOT
ATOM      1  C   UNL     1       0.442   4.212   0.010  1.00  0.00     0.048 A 
ATOM      2  C   UNL     1      -0.800   3.589   0.056  1.00  0.00     0.003 A 
ATOM      3  C   UNL     1      -0.878   2.218   0.036  1.00  0.00    -0.025 A 
ATOM      4  C   UNL     1       0.312   1.456  -0.017  1.00  0.00     0.042 A 
ATOM      5  C   UNL     1       0.443  -0.013  -0.040  1.00  0.00     0.097 A 
ATOM      6  C   UNL     1       1.750  -0.509  -0.098  1.00  0.00     0.088 A 
ATOM      7  C   UNL     1       1.998  -1.876  -0.123  1.00  0.00     0.119 A 
ATOM      8  N   UNL     1       0.959  -2.710  -0.091  1.00  0.00    -0.215 NA
ATOM      9  C   UNL     1      -0.276  -2.226  -0.036  1.00  0.00     0.189 A 
ATOM     10  N   UNL     1      -0.544  -0.937  -0.011  1.00  0.00    -0.221 NA
ATOM     11  S   UNL     1       2.778   0.934  -0.125  1.00  0.00    -0.111 S 
ATOM     12  C   UNL     1       1.516   2.182  -0.059  1.00  0.00     0.126 A 
ATOM     13  N   UNL     1       1.548   3.498  -0.047  1.00  0.00    -0.241 NA
ATOM     14  C   UNL     1      -2.198   1.498   0.076  1.00  0.00     0.071 C 
ATOM     15  C   UNL     1      -3.295   2.457   0.545  1.00  0.00     0.067 C 
ATOM     16  O   UNL     1      -3.191   3.670  -0.208  1.00  0.00    -0.370 OA
ATOM     17  C   UNL     1      -2.039   4.444   0.127  1.00  0.00     0.198 C 
ATOM     18  C   UNL     1      -3.112   2.759   2.034  1.00  0.00     0.042 C 
ATOM     19  C   UNL     1      -4.668   1.823   0.310  1.00  0.00     0.042 C 
ENDROOT
BRANCH   1  20
ATOM     20  C   UNL     1       0.524   5.717   0.025  1.00  0.00     0.059 C 
BRANCH  20  21
ATOM     21  C   UNL     1       0.473   6.216   1.470  1.00  0.00    -0.011 C 
ATOM     22  C   UNL     1       1.726   5.750   2.215  1.00  0.00     0.008 C 
ATOM     23  C   UNL     1       0.413   7.745   1.480  1.00  0.00     0.008 C 
ENDBRANCH  20  21
ENDBRANCH   1  20
BRANCH   7  24
ATOM     24  S   UNL     1       3.647  -2.492  -0.194  1.00  0.00    -0.095 SA
BRANCH  24  25
ATOM     25  C   UNL     1       3.317  -4.272  -0.201  1.00  0.00     0.176 C 
BRANCH  25  26
ATOM     26  C   UNL     1       4.622  -5.024  -0.260  1.00  0.00     0.227 C 
ATOM     27  O   UNL     1       5.671  -4.417  -0.295  1.00  0.00    -0.274 OA
ATOM     28  N   UNL     1       4.622  -6.372  -0.275  1.00  0.00    -0.369 N 
ATOM     29  H   UNL     1       3.731  -6.888  -0.246  1.00  0.00     0.159 HD
ATOM     30  H   UNL     1       5.514  -6.886  -0.316  1.00  0.00     0.159 HD
ENDBRANCH  25  26
ENDBRANCH  24  25
ENDBRANCH   7  24
BRANCH   9  31
ATOM     31  S   UNL     1      -1.621  -3.364   0.005  1.00  0.00    -0.090 SA
ATOM     32  C   UNL     1      -0.712  -4.928  -0.048  1.00  0.00     0.094 C 
ENDBRANCH   9  31
TORSDOF 6
