REMARK SMILES CC(C)(C)n1ncc2c(O)nc(SCC(=O)Nc3nccs3)nc21
REMARK SMILES IDX 14 1 13 2 12 3 5 4 6 5 24 6 7 7 23 8 8 9 9 10 11 11 2 12
REMARK SMILES IDX 1 13 3 14 4 15 10 16 15 18 16 19 17 20 18 22 22 23 19 24
REMARK SMILES IDX 21 25 20 26
REMARK H PARENT 10 17 17 21
REMARK Flexibility Score: inf
ROOT
ATOM      1  C   UNL     1      -0.013   1.086   0.008  1.00  0.00     0.178 C 
ENDROOT
BRANCH   1   2
ATOM      2  S   UNL     1      -0.888   1.685  -1.458  1.00  0.00    -0.076 SA
BRANCH   2   3
ATOM      3  C   UNL     1       0.122   0.990  -2.724  1.00  0.00     0.193 A 
ATOM      4  N   UNL     1       0.477   0.740  -6.333  1.00  0.00    -0.242 N 
ATOM      5  N   UNL     1       1.551   0.001  -6.844  1.00  0.00    -0.178 NA
ATOM      6  C   UNL     1       0.539   0.700  -4.972  1.00  0.00     0.166 A 
ATOM      7  C   UNL     1       2.258  -0.482  -5.862  1.00  0.00     0.151 A 
ATOM      8  N   UNL     1      -0.202   1.204  -3.988  1.00  0.00    -0.202 NA
ATOM      9  C   UNL     1       1.669  -0.076  -4.644  1.00  0.00     0.101 A 
ATOM     10  C   UNL     1       1.970  -0.281  -3.285  1.00  0.00     0.226 A 
ATOM     11  N   UNL     1       1.179   0.265  -2.373  1.00  0.00    -0.187 NA
BRANCH   4  12
ATOM     12  C   UNL     1      -0.539   1.437  -7.126  1.00  0.00     0.057 C 
ATOM     13  C   UNL     1      -0.507   2.931  -6.797  1.00  0.00     0.036 C 
ATOM     14  C   UNL     1      -0.251   1.236  -8.615  1.00  0.00     0.036 C 
ATOM     15  C   UNL     1      -1.922   0.872  -6.793  1.00  0.00     0.036 C 
ENDBRANCH   4  12
BRANCH  10  16
ATOM     16  O   UNL     1       3.044  -1.018  -2.918  1.00  0.00    -0.493 OA
ATOM     17  H   UNL     1       3.811  -0.580  -3.367  1.00  0.00     0.295 HD
ENDBRANCH  10  16
ENDBRANCH   2   3
ENDBRANCH   1   2
BRANCH   1  18
ATOM     18  C   UNL     1      -0.718   1.572   1.248  1.00  0.00     0.236 C 
ATOM     19  O   UNL     1      -1.715   2.256   1.150  1.00  0.00    -0.274 OA
ATOM     20  N   UNL     1      -0.242   1.246   2.466  1.00  0.00    -0.301 N 
ATOM     21  H   UNL     1       0.605   0.665   2.549  1.00  0.00     0.172 HD
BRANCH  20  22
ATOM     22  C   UNL     1      -0.892   1.694   3.609  1.00  0.00     0.189 A 
ATOM     23  S   UNL     1      -0.486   1.417   5.275  1.00  0.00    -0.105 S 
ATOM     24  N   UNL     1      -1.973   2.444   3.708  1.00  0.00    -0.229 NA
ATOM     25  C   UNL     1      -1.832   2.343   5.999  1.00  0.00     0.088 A 
ATOM     26  C   UNL     1      -2.468   2.778   4.884  1.00  0.00     0.125 A 
ENDBRANCH  20  22
ENDBRANCH   1  18
TORSDOF 6
