REMARK SMILES O=C(N[C@@H]1c2ccccc2C2(CC[NH+](Cc3cccc4ncccc34)CC2)[C@H]1O)c1ccccc1
REMARK SMILES IDX 4 1 5 2 6 3 7 4 8 5 9 6 10 7 11 8 28 9 12 10 13 11 26 12
REMARK SMILES IDX 27 13 14 14 3 16 2 17 1 18 30 20 33 21 34 22 32 23 35 24
REMARK SMILES IDX 31 25 29 26 15 28 16 29 25 30 17 31 20 32 24 33 18 34 19 35
REMARK SMILES IDX 21 36 23 37 22 38
REMARK H PARENT 14 15 3 19 29 27
REMARK Flexibility Score: inf
ROOT
ATOM      1  C   UNL     1       2.224   1.367  -0.333  1.00  0.00     0.142 C 
ATOM      2  C   UNL     1       2.566   0.943   1.080  1.00  0.00    -0.019 A 
ATOM      3  C   UNL     1       1.761   0.429   2.082  1.00  0.00     0.006 A 
ATOM      4  C   UNL     1       2.300   0.110   3.313  1.00  0.00     0.000 A 
ATOM      5  C   UNL     1       3.649   0.303   3.546  1.00  0.00     0.000 A 
ATOM      6  C   UNL     1       4.454   0.815   2.548  1.00  0.00     0.005 A 
ATOM      7  C   UNL     1       3.916   1.136   1.312  1.00  0.00    -0.033 A 
ATOM      8  C   UNL     1       4.567   1.702   0.073  1.00  0.00     0.035 C 
ATOM      9  C   UNL     1       3.413   2.238  -0.793  1.00  0.00     0.152 C 
ATOM     10  C   UNL     1       5.318   0.606  -0.680  1.00  0.00     0.076 C 
ATOM     11  C   UNL     1       5.990   1.212  -1.915  1.00  0.00     0.263 C 
ATOM     12  C   UNL     1       6.183   3.372  -0.831  1.00  0.00     0.263 C 
ATOM     13  C   UNL     1       5.517   2.838   0.440  1.00  0.00     0.076 C 
ATOM     14  N   UNL     1       6.926   2.271  -1.480  1.00  0.00    -0.331 N 
ATOM     15  H   UNL     1       7.589   1.871  -0.801  1.00  0.00     0.348 HD
ENDROOT
BRANCH   1  16
ATOM     16  N   UNL     1       0.986   2.150  -0.343  1.00  0.00    -0.343 N 
ATOM     17  C   UNL     1      -0.206   1.525  -0.420  1.00  0.00     0.251 C 
ATOM     18  O   UNL     1      -0.253   0.312  -0.481  1.00  0.00    -0.269 OA
ATOM     19  H   UNL     1       1.026   3.177  -0.292  1.00  0.00     0.164 HD
BRANCH  17  20
ATOM     20  C   UNL     1      -1.455   2.315  -0.437  1.00  0.00     0.039 A 
ATOM     21  C   UNL     1      -3.795   3.796  -0.467  1.00  0.00     0.000 A 
ATOM     22  C   UNL     1      -2.574   4.440  -0.382  1.00  0.00     0.001 A 
ATOM     23  C   UNL     1      -3.853   2.415  -0.537  1.00  0.00     0.001 A 
ATOM     24  C   UNL     1      -1.404   3.708  -0.361  1.00  0.00     0.014 A 
ATOM     25  C   UNL     1      -2.691   1.671  -0.522  1.00  0.00     0.014 A 
ENDBRANCH  17  20
ENDBRANCH   1  16
BRANCH   9  26
ATOM     26  O   UNL     1       3.684   2.037  -2.182  1.00  0.00    -0.390 OA
ATOM     27  H   UNL     1       2.877   2.276  -2.704  1.00  0.00     0.211 HD
ENDBRANCH   9  26
BRANCH  14  28
ATOM     28  C   UNL     1       7.679   2.787  -2.642  1.00  0.00     0.299 C 
BRANCH  28  29
ATOM     29  C   UNL     1       8.335   1.631  -3.354  1.00  0.00     0.016 A 
ATOM     30  C   UNL     1       9.443   0.987  -2.782  1.00  0.00     0.009 A 
ATOM     31  C   UNL     1       7.852   1.204  -4.553  1.00  0.00     0.010 A 
ATOM     32  C   UNL     1      10.049  -0.099  -3.462  1.00  0.00     0.071 A 
ATOM     33  C   UNL     1       9.968   1.394  -1.542  1.00  0.00     0.012 A 
ATOM     34  C   UNL     1       8.450   0.141  -5.226  1.00  0.00     0.003 A 
ATOM     35  C   UNL     1       9.526  -0.507  -4.701  1.00  0.00     0.029 A 
ATOM     36  N   UNL     1      11.105  -0.716  -2.921  1.00  0.00    -0.256 NA
ATOM     37  C   UNL     1      11.048   0.720  -1.046  1.00  0.00     0.021 A 
ATOM     38  C   UNL     1      11.597  -0.339  -1.766  1.00  0.00     0.112 A 
ENDBRANCH  28  29
ENDBRANCH  14  28
TORSDOF 5
