REMARK SMILES CCCSc1nc(NNC(=O)c2ccc(OC)cc2)c2c3c(sc2n1)COC(C)(C)C3
REMARK SMILES IDX 5 1 6 2 7 3 20 4 21 5 22 6 23 7 24 8 25 9 26 10 27 11 28 12
REMARK SMILES IDX 31 13 29 14 30 15 4 16 3 17 2 18 1 19 8 20 9 22 10 23 11 25
REMARK SMILES IDX 12 26 19 27 13 28 18 29 14 30 15 31 16 32 17 33
REMARK H PARENT 8 21 9 24
REMARK Flexibility Score: inf
ROOT
ATOM      1  C   UNL     1      -0.793   2.005  -3.972  1.00  0.00     0.190 A 
ATOM      2  N   UNL     1      -0.509   1.802  -5.253  1.00  0.00    -0.203 NA
ATOM      3  C   UNL     1      -1.390   2.026  -6.213  1.00  0.00     0.158 A 
ATOM      4  C   UNL     1      -2.684   2.511  -5.870  1.00  0.00     0.059 A 
ATOM      5  C   UNL     1      -3.805   2.832  -6.752  1.00  0.00    -0.016 A 
ATOM      6  C   UNL     1      -4.937   3.280  -6.169  1.00  0.00     0.037 A 
ATOM      7  S   UNL     1      -4.585   3.303  -4.434  1.00  0.00    -0.118 S 
ATOM      8  C   UNL     1      -2.914   2.709  -4.494  1.00  0.00     0.130 A 
ATOM      9  N   UNL     1      -1.982   2.457  -3.595  1.00  0.00    -0.211 NA
ATOM     10  C   UNL     1      -6.202   3.667  -6.871  1.00  0.00     0.207 C 
ATOM     11  O   UNL     1      -5.912   3.785  -8.272  1.00  0.00    -0.370 OA
ATOM     12  C   UNL     1      -5.185   2.672  -8.800  1.00  0.00     0.067 C 
ATOM     13  C   UNL     1      -3.748   2.682  -8.270  1.00  0.00     0.072 C 
ATOM     14  C   UNL     1      -5.873   1.372  -8.379  1.00  0.00     0.042 C 
ATOM     15  C   UNL     1      -5.160   2.761 -10.328  1.00  0.00     0.042 C 
ENDROOT
BRANCH   1  16
ATOM     16  S   UNL     1       0.434   1.676  -2.751  1.00  0.00    -0.086 SA
BRANCH  16  17
ATOM     17  C   UNL     1      -0.482   2.127  -1.256  1.00  0.00     0.078 C 
BRANCH  17  18
ATOM     18  C   UNL     1       0.409   1.917  -0.030  1.00  0.00     0.008 C 
ATOM     19  C   UNL     1      -0.365   2.298   1.234  1.00  0.00     0.005 C 
ENDBRANCH  17  18
ENDBRANCH  16  17
ENDBRANCH   1  16
BRANCH   3  20
ATOM     20  N   UNL     1      -1.057   1.797  -7.535  1.00  0.00    -0.281 N 
ATOM     21  H   UNL     1      -1.677   2.128  -8.287  1.00  0.00     0.190 HD
BRANCH  20  22
ATOM     22  N   UNL     1       0.125   1.114  -7.851  1.00  0.00    -0.265 N 
ATOM     23  C   UNL     1       0.450   0.890  -9.140  1.00  0.00     0.269 C 
ATOM     24  H   UNL     1       0.745   0.782  -7.099  1.00  0.00     0.191 HD
ATOM     25  O   UNL     1      -0.283   1.282 -10.028  1.00  0.00    -0.267 OA
BRANCH  23  26
ATOM     26  C   UNL     1       1.694   0.171  -9.473  1.00  0.00     0.041 A 
ATOM     27  C   UNL     1       2.033  -0.062 -10.809  1.00  0.00     0.018 A 
ATOM     28  C   UNL     1       2.540  -0.275  -8.454  1.00  0.00     0.018 A 
ATOM     29  C   UNL     1       3.195  -0.734 -11.116  1.00  0.00     0.047 A 
ATOM     30  C   UNL     1       3.698  -0.951  -8.769  1.00  0.00     0.047 A 
ATOM     31  C   UNL     1       4.031  -1.180 -10.099  1.00  0.00     0.118 A 
BRANCH  31  32
ATOM     32  O   UNL     1       5.176  -1.842 -10.405  1.00  0.00    -0.497 OA
ATOM     33  C   UNL     1       5.988  -2.273  -9.312  1.00  0.00     0.278 C 
ENDBRANCH  31  32
ENDBRANCH  23  26
ENDBRANCH  20  22
ENDBRANCH   3  20
TORSDOF 7
