REMARK SMILES Cn1c(SCC(=O)NC2CC[NH+](C3CC3)CC2)nnc1-c1cc2c(s1)CC[C@@H](C(C)(C)C)C2
REMARK SMILES IDX 5 1 4 2 3 3 20 4 2 5 19 6 1 7 18 8 21 9 28 10 33 11 27 12
REMARK SMILES IDX 23 13 26 14 24 15 22 16 25 17 29 18 30 19 31 20 32 21 6 22
REMARK SMILES IDX 7 23 8 24 9 26 17 27 10 28 16 29 11 30 12 31 13 33 15 34
REMARK SMILES IDX 14 35
REMARK H PARENT 8 25 12 32
REMARK Flexibility Score: inf
ROOT
ATOM      1  C   UNL     1      -8.481   2.758   0.156  1.00  0.00     0.178 C 
ENDROOT
BRANCH   1   2
ATOM      2  S   UNL     1      -7.667   1.175   0.485  1.00  0.00    -0.076 SA
BRANCH   2   3
ATOM      3  C   UNL     1      -5.986   1.637   0.227  1.00  0.00     0.191 A 
ATOM      4  C   UNL     1      -3.807   1.614   0.047  1.00  0.00     0.174 A 
ATOM      5  N   UNL     1      -4.895   0.820   0.334  1.00  0.00    -0.304 N 
ATOM      6  N   UNL     1      -4.268   2.817  -0.217  1.00  0.00    -0.128 NA
ATOM      7  C   UNL     1      -4.885  -0.602   0.685  1.00  0.00     0.154 C 
ATOM      8  N   UNL     1      -5.549   2.829  -0.111  1.00  0.00    -0.123 NA
BRANCH   4   9
ATOM      9  C   UNL     1      -2.397   1.194   0.032  1.00  0.00     0.072 A 
ATOM     10  C   UNL     1       2.425   1.223   0.449  1.00  0.00    -0.001 C 
ATOM     11  C   UNL     1       1.291   2.147   0.001  1.00  0.00     0.040 C 
ATOM     12  C   UNL     1       2.426  -0.054  -0.396  1.00  0.00     0.010 C 
ATOM     13  C   UNL     1      -0.016   1.359   0.009  1.00  0.00    -0.033 A 
ATOM     14  C   UNL     1       1.200  -0.898  -0.016  1.00  0.00     0.047 C 
ATOM     15  C   UNL     1       0.002  -0.004   0.002  1.00  0.00     0.009 A 
ATOM     16  C   UNL     1      -1.266   1.967   0.030  1.00  0.00     0.027 A 
ATOM     17  S   UNL     1      -1.712  -0.456   0.017  1.00  0.00    -0.137 S 
BRANCH  10  18
ATOM     18  C   UNL     1       3.764   1.945   0.281  1.00  0.00    -0.035 C 
ATOM     19  C   UNL     1       3.966   2.307  -1.192  1.00  0.00     0.011 C 
ATOM     20  C   UNL     1       3.765   3.221   1.125  1.00  0.00     0.011 C 
ATOM     21  C   UNL     1       4.898   1.028   0.742  1.00  0.00     0.011 C 
ENDBRANCH  10  18
ENDBRANCH   4   9
ENDBRANCH   2   3
ENDBRANCH   1   2
BRANCH   1  22
ATOM     22  C   UNL     1      -9.971   2.600   0.322  1.00  0.00     0.230 C 
ATOM     23  O   UNL     1     -10.436   1.524   0.632  1.00  0.00    -0.274 OA
ATOM     24  N   UNL     1     -10.786   3.655   0.125  1.00  0.00    -0.352 N 
ATOM     25  H   UNL     1     -10.392   4.569  -0.139  1.00  0.00     0.163 HD
BRANCH  24  26
ATOM     26  C   UNL     1     -12.234   3.501   0.286  1.00  0.00     0.093 C 
ATOM     27  C   UNL     1     -12.858   4.857   0.629  1.00  0.00     0.086 C 
ATOM     28  C   UNL     1     -12.843   2.984  -1.020  1.00  0.00     0.086 C 
ATOM     29  C   UNL     1     -14.376   4.703   0.736  1.00  0.00     0.264 C 
ATOM     30  C   UNL     1     -14.362   2.884  -0.865  1.00  0.00     0.264 C 
ATOM     31  N   UNL     1     -14.910   4.206  -0.539  1.00  0.00    -0.332 N 
ATOM     32  H   UNL     1     -14.616   4.860  -1.279  1.00  0.00     0.348 HD
BRANCH  31  33
ATOM     33  C   UNL     1     -16.379   4.177  -0.519  1.00  0.00     0.184 C 
ATOM     34  C   UNL     1     -17.096   3.792  -1.815  1.00  0.00     0.071 C 
ATOM     35  C   UNL     1     -17.060   2.812  -0.639  1.00  0.00     0.071 C 
ENDBRANCH  31  33
ENDBRANCH  24  26
ENDBRANCH   1  22
TORSDOF 7
