REMARK SMILES CC(C)n1nc(C(=O)NNC(=O)NCCC(c2ccccc2)c2ccccc2)c2ccccc2c1=O
REMARK SMILES IDX 10 1 11 2 12 3 13 4 9 7 7 8 8 9 6 11 4 12 5 13 35 14 36 15
REMARK SMILES IDX 34 16 29 17 33 18 30 19 32 20 31 21 2 22 1 23 3 24 14 25
REMARK SMILES IDX 15 26 16 27 17 28 22 29 18 30 21 31 19 32 20 33 23 34 28 35
REMARK SMILES IDX 24 36 27 37 25 38 26 39
REMARK H PARENT 10 5 13 6 9 10
REMARK Flexibility Score: inf
ROOT
ATOM      1  N   UNL     1       0.286  -5.348  -2.950  1.00  0.00    -0.249 N 
ATOM      2  C   UNL     1       0.575  -4.491  -1.951  1.00  0.00     0.333 C 
ATOM      3  O   UNL     1       1.299  -4.841  -1.039  1.00  0.00    -0.247 OA
ATOM      4  N   UNL     1       0.062  -3.245  -1.963  1.00  0.00    -0.337 N 
ATOM      5  H   UNL     1       0.678  -6.301  -2.940  1.00  0.00     0.193 HD
ATOM      6  H   UNL     1      -0.550  -2.947  -2.736  1.00  0.00     0.165 HD
ENDROOT
BRANCH   1   7
ATOM      7  N   UNL     1      -0.548  -4.944  -4.000  1.00  0.00    -0.261 N 
ATOM      8  C   UNL     1      -0.837  -5.802  -4.999  1.00  0.00     0.290 C 
ATOM      9  O   UNL     1      -0.374  -6.926  -4.988  1.00  0.00    -0.266 OA
ATOM     10  H   UNL     1      -0.940  -3.992  -4.010  1.00  0.00     0.191 HD
BRANCH   8  11
ATOM     11  C   UNL     1      -1.716  -5.376  -6.106  1.00  0.00     0.158 A 
ATOM     12  N   UNL     1      -2.987  -3.720  -7.047  1.00  0.00    -0.226 N 
ATOM     13  N   UNL     1      -2.219  -4.166  -6.126  1.00  0.00    -0.163 NA
ATOM     14  C   UNL     1      -3.371  -4.450  -8.114  1.00  0.00     0.274 A 
ATOM     15  O   UNL     1      -4.105  -3.975  -8.962  1.00  0.00    -0.267 OA
ATOM     16  C   UNL     1      -2.885  -5.831  -8.229  1.00  0.00     0.051 A 
ATOM     17  C   UNL     1      -2.033  -6.303  -7.204  1.00  0.00     0.021 A 
ATOM     18  C   UNL     1      -3.222  -6.666  -9.291  1.00  0.00     0.014 A 
ATOM     19  C   UNL     1      -1.545  -7.605  -7.256  1.00  0.00     0.011 A 
ATOM     20  C   UNL     1      -2.723  -7.950  -9.325  1.00  0.00     0.001 A 
ATOM     21  C   UNL     1      -1.891  -8.416  -8.316  1.00  0.00     0.001 A 
BRANCH  12  22
ATOM     22  C   UNL     1      -3.475  -2.343  -6.936  1.00  0.00     0.105 C 
ATOM     23  C   UNL     1      -4.279  -2.189  -5.644  1.00  0.00     0.033 C 
ATOM     24  C   UNL     1      -2.285  -1.381  -6.915  1.00  0.00     0.033 C 
ENDBRANCH  12  22
ENDBRANCH   8  11
ENDBRANCH   1   7
BRANCH   4  25
ATOM     25  C   UNL     1       0.377  -2.312  -0.877  1.00  0.00     0.119 C 
BRANCH  25  26
ATOM     26  C   UNL     1      -0.326  -0.978  -1.132  1.00  0.00     0.034 C 
BRANCH  26  27
ATOM     27  C   UNL     1       0.002  -0.004   0.002  1.00  0.00     0.051 C 
BRANCH  27  28
ATOM     28  C   UNL     1      -0.589   1.347  -0.309  1.00  0.00    -0.040 A 
ATOM     29  C   UNL     1       0.206   2.477  -0.261  1.00  0.00     0.004 A 
ATOM     30  C   UNL     1      -1.925   1.456  -0.648  1.00  0.00     0.004 A 
ATOM     31  C   UNL     1      -0.335   3.716  -0.547  1.00  0.00     0.000 A 
ATOM     32  C   UNL     1      -2.467   2.696  -0.928  1.00  0.00     0.000 A 
ATOM     33  C   UNL     1      -1.673   3.825  -0.880  1.00  0.00     0.000 A 
ENDBRANCH  27  28
BRANCH  27  34
ATOM     34  C   UNL     1      -0.579  -0.521   1.293  1.00  0.00    -0.040 A 
ATOM     35  C   UNL     1      -1.916  -0.869   1.359  1.00  0.00     0.004 A 
ATOM     36  C   UNL     1       0.225  -0.654   2.409  1.00  0.00     0.004 A 
ATOM     37  C   UNL     1      -2.449  -1.344   2.542  1.00  0.00     0.000 A 
ATOM     38  C   UNL     1      -0.309  -1.124   3.594  1.00  0.00     0.000 A 
ATOM     39  C   UNL     1      -1.645  -1.471   3.660  1.00  0.00     0.000 A 
ENDBRANCH  27  34
ENDBRANCH  26  27
ENDBRANCH  25  26
ENDBRANCH   4  25
TORSDOF 8
