REMARK SMILES O=C(NC1CN(c2cc[nH+]cc2)C1)c1cc2ccccc2n1Cc1cc(-c2ccc(Cl)s2)on1
REMARK SMILES IDX 18 1 19 2 20 3 21 4 16 5 17 6 15 7 14 8 22 9 23 10 24 11
REMARK SMILES IDX 34 12 25 13 33 14 26 15 27 16 32 17 28 18 30 19 29 20 31 21
REMARK SMILES IDX 2 22 1 23 3 24 4 26 13 27 5 28 6 29 7 30 12 31 8 32 11 33
REMARK SMILES IDX 9 34 10 35
REMARK H PARENT 3 25 10 36
REMARK Flexibility Score: inf
ROOT
ATOM      1  C   UNL     1      -9.341  10.179  -0.710  1.00  0.00     0.001 A 
ATOM      2  C   UNL     1      -8.607  10.014  -1.877  1.00  0.00     0.002 A 
ATOM      3  C   UNL     1      -7.631   9.046  -1.962  1.00  0.00     0.027 A 
ATOM      4  C   UNL     1      -7.377   8.222  -0.869  1.00  0.00     0.049 A 
ATOM      5  C   UNL     1      -8.123   8.391   0.314  1.00  0.00     0.000 A 
ATOM      6  C   UNL     1      -9.110   9.384   0.375  1.00  0.00     0.010 A 
ATOM      7  C   UNL     1      -7.656   7.426   1.238  1.00  0.00     0.042 A 
ATOM      8  C   UNL     1      -6.667   6.718   0.633  1.00  0.00     0.108 A 
ATOM      9  N   UNL     1      -6.491   7.193  -0.652  1.00  0.00    -0.330 N 
ENDROOT
BRANCH   9  10
ATOM     10  C   UNL     1      -5.521   6.684  -1.624  1.00  0.00     0.182 C 
BRANCH  10  11
ATOM     11  C   UNL     1      -6.123   5.525  -2.376  1.00  0.00     0.104 A 
ATOM     12  N   UNL     1      -6.629   4.441  -1.859  1.00  0.00    -0.082 NA
ATOM     13  C   UNL     1      -6.243   5.401  -3.773  1.00  0.00     0.080 A 
ATOM     14  O   UNL     1      -7.043   3.685  -2.707  1.00  0.00    -0.355 OA
ATOM     15  C   UNL     1      -6.850   4.181  -3.944  1.00  0.00     0.177 A 
BRANCH  15  16
ATOM     16  C   UNL     1      -7.217   3.547  -5.218  1.00  0.00     0.074 A 
ATOM     17  S   UNL     1      -6.989   4.152  -6.882  1.00  0.00    -0.120 S 
ATOM     18  C   UNL     1      -7.822   2.324  -5.440  1.00  0.00     0.025 A 
ATOM     19  C   UNL     1      -7.707   2.770  -7.755  1.00  0.00     0.094 A 
ATOM     20  C   UNL     1      -8.071   1.943  -6.738  1.00  0.00     0.033 A 
ATOM     21  Cl  UNL     1      -7.892   2.539  -9.465  1.00  0.00    -0.072 Cl
ENDBRANCH  15  16
ENDBRANCH  10  11
ENDBRANCH   9  10
BRANCH   8  22
ATOM     22  C   UNL     1      -5.910   5.617   1.246  1.00  0.00     0.268 C 
ATOM     23  O   UNL     1      -4.971   5.120   0.652  1.00  0.00    -0.268 OA
ATOM     24  N   UNL     1      -6.255   5.158   2.465  1.00  0.00    -0.344 N 
ATOM     25  H   UNL     1      -7.096   5.524   2.934  1.00  0.00     0.164 HD
BRANCH  24  26
ATOM     26  C   UNL     1      -5.435   4.137   3.123  1.00  0.00     0.121 C 
ATOM     27  C   UNL     1      -6.116   2.767   3.245  1.00  0.00     0.143 C 
ATOM     28  C   UNL     1      -5.543   4.135   4.654  1.00  0.00     0.143 C 
ATOM     29  N   UNL     1      -6.699   3.230   4.518  1.00  0.00    -0.367 N 
BRANCH  29  30
ATOM     30  C   UNL     1      -6.661   2.224   5.479  1.00  0.00     0.049 A 
ATOM     31  C   UNL     1      -7.076   0.928   5.175  1.00  0.00     0.096 A 
ATOM     32  C   UNL     1      -6.212   2.488   6.773  1.00  0.00     0.096 A 
ATOM     33  C   UNL     1      -7.022  -0.040   6.156  1.00  0.00     0.308 A 
ATOM     34  C   UNL     1      -6.185   1.463   7.695  1.00  0.00     0.308 A 
ATOM     35  N   UNL     1      -6.584   0.190   7.424  1.00  0.00    -0.218 N 
ATOM     36  H   UNL     1      -6.556  -0.554   8.136  1.00  0.00     0.453 HD
ENDBRANCH  29  30
ENDBRANCH  24  26
ENDBRANCH   8  22
TORSDOF 6
