REMARK SMILES CC(C)[C@H](NC(=O)c1ccc(Cl)cc1Cl)C(=O)N/N=C/c1ccccc1OCc1ccccc1C#N
REMARK SMILES IDX 21 1 22 2 23 3 24 4 25 5 26 6 20 7 19 8 18 9 16 10 17 11
REMARK SMILES IDX 4 13 2 14 1 15 3 16 5 17 6 18 7 20 8 21 14 22 9 23 13 24
REMARK SMILES IDX 15 25 10 26 11 27 12 28 27 29 28 30 29 31 34 32 30 33 33 34
REMARK SMILES IDX 31 35 32 36 35 37 36 38
REMARK H PARENT 18 12 5 19
REMARK Flexibility Score: inf
ROOT
ATOM      1  C   UNL     1      -4.923  -7.287   1.834  1.00  0.00     0.037 A 
ATOM      2  C   UNL     1      -5.908  -8.269   1.712  1.00  0.00     0.013 A 
ATOM      3  C   UNL     1      -5.739  -9.493   2.325  1.00  0.00     0.001 A 
ATOM      4  C   UNL     1      -4.600  -9.748   3.070  1.00  0.00     0.004 A 
ATOM      5  C   UNL     1      -3.620  -8.783   3.203  1.00  0.00     0.047 A 
ATOM      6  C   UNL     1      -3.772  -7.550   2.589  1.00  0.00     0.128 A 
ENDROOT
BRANCH   1   7
ATOM      7  C   UNL     1      -5.096  -5.978   1.178  1.00  0.00     0.145 C 
ATOM      8  N   UNL     1      -4.132  -5.109   1.201  1.00  0.00    -0.181 NA
BRANCH   8   9
ATOM      9  N   UNL     1      -4.333  -3.827   0.673  1.00  0.00    -0.245 N 
ATOM     10  C   UNL     1      -3.301  -2.964   0.587  1.00  0.00     0.262 C 
ATOM     11  O   UNL     1      -2.219  -3.265   1.045  1.00  0.00    -0.271 OA
ATOM     12  H   UNL     1      -5.270  -3.544   0.350  1.00  0.00     0.193 HD
BRANCH  10  13
ATOM     13  C   UNL     1      -3.492  -1.625  -0.077  1.00  0.00     0.176 C 
BRANCH  13  14
ATOM     14  C   UNL     1      -3.478  -1.803  -1.597  1.00  0.00     0.015 C 
ATOM     15  C   UNL     1      -3.804  -0.469  -2.270  1.00  0.00     0.010 C 
ATOM     16  C   UNL     1      -2.091  -2.273  -2.042  1.00  0.00     0.010 C 
ENDBRANCH  13  14
BRANCH  13  17
ATOM     17  N   UNL     1      -2.407  -0.724   0.319  1.00  0.00    -0.340 N 
ATOM     18  C   UNL     1      -2.595   0.610   0.290  1.00  0.00     0.253 C 
ATOM     19  H   UNL     1      -1.501  -1.110   0.620  1.00  0.00     0.164 HD
ATOM     20  O   UNL     1      -3.664   1.066  -0.065  1.00  0.00    -0.269 OA
BRANCH  18  21
ATOM     21  C   UNL     1      -1.500   1.519   0.690  1.00  0.00     0.058 A 
ATOM     22  C   UNL     1      -1.693   2.902   0.666  1.00  0.00     0.055 A 
ATOM     23  C   UNL     1      -0.270   0.998   1.098  1.00  0.00     0.017 A 
ATOM     24  C   UNL     1      -0.664   3.746   1.036  1.00  0.00     0.041 A 
ATOM     25  Cl  UNL     1      -3.220   3.560   0.166  1.00  0.00    -0.083 Cl
ATOM     26  C   UNL     1       0.749   1.851   1.465  1.00  0.00     0.021 A 
ATOM     27  C   UNL     1       0.554   3.222   1.434  1.00  0.00     0.042 A 
ATOM     28  Cl  UNL     1       1.842   4.289   1.898  1.00  0.00    -0.084 Cl
ENDBRANCH  18  21
ENDBRANCH  13  17
ENDBRANCH  10  13
ENDBRANCH   8   9
ENDBRANCH   1   7
BRANCH   6  29
ATOM     29  O   UNL     1      -2.810  -6.601   2.719  1.00  0.00    -0.488 OA
BRANCH  29  30
ATOM     30  C   UNL     1      -1.611  -6.980   3.398  1.00  0.00     0.266 C 
BRANCH  30  31
ATOM     31  C   UNL     1      -0.729  -5.771   3.574  1.00  0.00     0.007 A 
ATOM     32  C   UNL     1       0.558  -5.914   4.096  1.00  0.00     0.059 A 
ATOM     33  C   UNL     1      -1.188  -4.521   3.213  1.00  0.00     0.008 A 
ATOM     34  C   UNL     1       1.369  -4.789   4.255  1.00  0.00     0.020 A 
ATOM     35  C   UNL     1      -0.381  -3.410   3.378  1.00  0.00     0.001 A 
ATOM     36  C   UNL     1       0.895  -3.545   3.896  1.00  0.00     0.001 A 
BRANCH  32  37
ATOM     37  C   UNL     1       1.044  -7.209   4.467  1.00  0.00     0.100 C 
ATOM     38  N   UNL     1       1.429  -8.237   4.761  1.00  0.00    -0.192 NA
ENDBRANCH  32  37
ENDBRANCH  30  31
ENDBRANCH  29  30
ENDBRANCH   6  29
TORSDOF 10
