REMARK SMILES CC(=O)O[C@H]1C[C@@]2(C)C(=C[C@@H](O)[C@H]3[C@@]4(C)CC[C@@H](O)C(C)=C4C=C[C@@]32C)/C1=C(/CCC=C(C)C)C(=O)[O-]
REMARK SMILES IDX 21 1 20 2 22 3 23 4 24 5 25 6 13 7 14 8 16 9 17 10 18 11
REMARK SMILES IDX 15 12 11 13 10 14 9 15 7 16 6 17 5 18 27 19 28 20 8 21 26 22
REMARK SMILES IDX 19 23 12 25 4 27 2 28 3 29 1 30 29 31 30 32 31 33 32 34
REMARK SMILES IDX 33 35 34 36 35 37 36 38 37 39
REMARK H PARENT 19 24 12 26
REMARK Flexibility Score: inf
ROOT
ATOM      1  C   UNL     1       5.519  -5.244   0.605  1.00  0.00     0.042 C 
ATOM      2  C   UNL     1       4.046  -5.383   0.319  1.00  0.00    -0.041 C 
ATOM      3  C   UNL     1       3.187  -4.608   0.948  1.00  0.00    -0.040 C 
ATOM      4  C   UNL     1       3.695  -3.552   1.869  1.00  0.00     0.000 C 
ATOM      5  C   UNL     1       3.136  -2.337   1.663  1.00  0.00    -0.019 C 
ATOM      6  C   UNL     1       2.181  -2.215   0.501  1.00  0.00     0.002 C 
ATOM      7  C   UNL     1       1.106  -3.296   0.576  1.00  0.00     0.043 C 
ATOM      8  C   UNL     1       1.702  -4.679   0.779  1.00  0.00    -0.001 C 
ATOM      9  C   UNL     1       1.244  -5.660  -0.277  1.00  0.00     0.015 C 
ATOM     10  C   UNL     1       2.308  -5.867  -1.353  1.00  0.00     0.037 C 
ATOM     11  C   UNL     1       3.580  -6.407  -0.684  1.00  0.00     0.140 C 
ATOM     12  C   UNL     1       1.141  -5.199   2.104  1.00  0.00     0.017 C 
ATOM     13  C   UNL     1       0.252  -3.286  -0.690  1.00  0.00     0.142 C 
ATOM     14  C   UNL     1      -0.233  -1.892  -0.993  1.00  0.00     0.009 C 
ATOM     15  C   UNL     1       0.371  -0.832  -0.480  1.00  0.00    -0.035 C 
ATOM     16  C   UNL     1       1.508  -0.851   0.528  1.00  0.00     0.006 C 
ATOM     17  C   UNL     1       2.433   0.264   0.000  1.00  0.00     0.062 C 
ATOM     18  C   UNL     1       1.421   1.329  -0.491  1.00  0.00     0.208 C 
ATOM     19  C   UNL     1       0.117   0.589  -0.740  1.00  0.00     0.001 C 
ATOM     20  C   UNL     1      -1.055   1.137  -1.132  1.00  0.00    -0.018 C 
ATOM     21  C   UNL     1       0.995  -0.528   1.933  1.00  0.00     0.017 C 
ATOM     22  C   UNL     1       2.958  -2.368  -0.808  1.00  0.00     0.017 C 
ENDROOT
BRANCH  11  23
ATOM     23  O   UNL     1       4.593  -6.615  -1.670  1.00  0.00    -0.389 OA
ATOM     24  H   UNL     1       5.419  -6.938  -1.229  1.00  0.00     0.211 HD
ENDBRANCH  11  23
BRANCH  13  25
ATOM     25  O   UNL     1       1.033  -3.761  -1.789  1.00  0.00    -0.389 OA
ATOM     26  H   UNL     1       1.338  -4.685  -1.605  1.00  0.00     0.211 HD
ENDBRANCH  13  25
BRANCH  18  27
ATOM     27  O   UNL     1       1.231   2.346   0.529  1.00  0.00    -0.458 OA
BRANCH  27  28
ATOM     28  C   UNL     1       2.065   3.397   0.503  1.00  0.00     0.303 C 
ATOM     29  O   UNL     1       2.933   3.461  -0.336  1.00  0.00    -0.253 OA
ATOM     30  C   UNL     1       1.920   4.499   1.522  1.00  0.00     0.139 C 
ENDBRANCH  27  28
ENDBRANCH  18  27
BRANCH  20  31
ATOM     31  C   UNL     1      -1.121   2.599  -1.490  1.00  0.00     0.042 C 
BRANCH  31  32
ATOM     32  C   UNL     1      -0.964   2.761  -3.004  1.00  0.00     0.032 C 
BRANCH  32  33
ATOM     33  C   UNL     1      -1.030   4.223  -3.362  1.00  0.00    -0.028 C 
ATOM     34  C   UNL     1      -0.028   4.790  -3.988  1.00  0.00    -0.080 C 
ATOM     35  C   UNL     1       1.135   3.956  -4.458  1.00  0.00     0.039 C 
ATOM     36  C   UNL     1      -0.040   6.276  -4.237  1.00  0.00     0.039 C 
ENDBRANCH  32  33
ENDBRANCH  31  32
ENDBRANCH  20  31
BRANCH  20  37
ATOM     37  C   UNL     1      -2.223   0.335  -1.207  1.00  0.00     0.068 C 
ATOM     38  O   UNL     1      -2.671   0.013  -2.291  1.00  0.00    -0.545 OA
ATOM     39  O   UNL     1      -2.836  -0.069  -0.075  1.00  0.00    -0.545 OA
ENDBRANCH  20  37
TORSDOF 8
