REMARK SMILES Cc1ccc(-n2nc([C@@H]3OC[C@@H](O)[C@H]3O)c3nc4cc(C)c(C)cc4nc32)cc1
REMARK SMILES IDX 6 1 27 2 16 3 8 4 7 5 17 6 18 7 19 8 20 9 22 10 24 11 25 12
REMARK SMILES IDX 26 13 23 14 21 15 5 16 1 17 2 18 29 19 3 20 28 21 4 22 9 23
REMARK SMILES IDX 10 24 14 25 11 26 12 27 15 28 13 30
REMARK H PARENT 15 29 13 31
REMARK Flexibility Score: inf
ROOT
ATOM      1  N   UNL     1       0.138  -5.040   3.290  1.00  0.00    -0.213 N 
ATOM      2  C   UNL     1       0.090  -4.069   2.318  1.00  0.00     0.182 A 
ATOM      3  C   UNL     1      -0.260  -4.763   1.077  1.00  0.00     0.135 A 
ATOM      4  C   UNL     1      -0.398  -6.172   1.445  1.00  0.00     0.122 A 
ATOM      5  N   UNL     1      -0.160  -6.280   2.719  1.00  0.00    -0.166 NA
ATOM      6  N   UNL     1      -0.386  -4.091  -0.056  1.00  0.00    -0.241 NA
ATOM      7  C   UNL     1      -0.189  -2.773  -0.060  1.00  0.00     0.090 A 
ATOM      8  C   UNL     1      -0.313  -2.022  -1.246  1.00  0.00     0.034 A 
ATOM      9  C   UNL     1      -0.112  -0.678  -1.213  1.00  0.00    -0.046 A 
ATOM     10  C   UNL     1       0.226  -0.019  -0.032  1.00  0.00    -0.046 A 
ATOM     11  C   UNL     1       0.361  -0.686   1.144  1.00  0.00     0.034 A 
ATOM     12  C   UNL     1       0.161  -2.080   1.181  1.00  0.00     0.092 A 
ATOM     13  N   UNL     1       0.285  -2.765   2.319  1.00  0.00    -0.225 NA
ATOM     14  C   UNL     1       0.443   1.472  -0.060  1.00  0.00     0.044 C 
ATOM     15  C   UNL     1      -0.252   0.118  -2.485  1.00  0.00     0.044 C 
ENDROOT
BRANCH   1  16
ATOM     16  C   UNL     1       0.439  -4.822   4.640  1.00  0.00     0.067 A 
ATOM     17  C   UNL     1       1.357  -4.156   8.760  1.00  0.00     0.044 C 
ATOM     18  C   UNL     1       1.034  -4.391   7.307  1.00  0.00    -0.051 A 
ATOM     19  C   UNL     1       1.660  -3.639   6.330  1.00  0.00     0.005 A 
ATOM     20  C   UNL     1       0.111  -5.358   6.954  1.00  0.00     0.005 A 
ATOM     21  C   UNL     1       1.370  -3.855   4.998  1.00  0.00     0.029 A 
ATOM     22  C   UNL     1      -0.188  -5.576   5.623  1.00  0.00     0.029 A 
ENDBRANCH   1  16
BRANCH   4  23
ATOM     23  C   UNL     1      -0.752  -7.300   0.511  1.00  0.00     0.202 C 
ATOM     24  O   UNL     1      -1.722  -8.176   1.126  1.00  0.00    -0.366 OA
ATOM     25  C   UNL     1       0.481  -8.194   0.255  1.00  0.00     0.180 C 
ATOM     26  C   UNL     1      -1.615  -9.425   0.409  1.00  0.00     0.195 C 
ATOM     27  C   UNL     1      -0.099  -9.625   0.187  1.00  0.00     0.172 C 
BRANCH  25  28
ATOM     28  O   UNL     1       1.104  -7.847  -0.983  1.00  0.00    -0.387 OA
ATOM     29  H   UNL     1       1.385  -6.898  -0.949  1.00  0.00     0.211 HD
ENDBRANCH  25  28
BRANCH  27  30
ATOM     30  O   UNL     1       0.147 -10.207  -1.095  1.00  0.00    -0.388 OA
ATOM     31  H   UNL     1       1.123 -10.239  -1.252  1.00  0.00     0.211 HD
ENDBRANCH  27  30
ENDBRANCH   4  23
TORSDOF 4
