REMARK SMILES Cc1ccc(/C=C/C2=Cc3c(sc(NC(=O)CSc4nc(C(C)C)n[n-]4)c3C#N)C(C)(C)C2)o1
REMARK SMILES IDX 14 1 15 2 16 3 13 5 8 6 33 7 9 8 30 9 10 10 11 11 31 12
REMARK SMILES IDX 32 13 27 14 12 15 7 16 6 17 5 18 1 19 2 20 34 21 3 22 4 23
REMARK SMILES IDX 28 24 29 25 17 26 18 27 19 28 20 29 26 30 21 31 25 32 22 33
REMARK SMILES IDX 23 34 24 35
REMARK H PARENT 14 4
REMARK Flexibility Score: inf
ROOT
ATOM      1  N   UNL     1      -0.028   1.603  -2.451  1.00  0.00    -0.316 N 
ATOM      2  C   UNL     1      -0.536   1.808  -1.219  1.00  0.00     0.235 C 
ATOM      3  O   UNL     1      -1.648   2.274  -1.092  1.00  0.00    -0.274 OA
ATOM      4  H   UNL     1       0.916   1.207  -2.559  1.00  0.00     0.170 HD
ENDROOT
BRANCH   1   5
ATOM      5  C   UNL     1      -0.778   1.925  -3.573  1.00  0.00     0.114 A 
ATOM      6  C   UNL     1      -2.126   2.852  -8.136  1.00  0.00    -0.046 C 
ATOM      7  C   UNL     1      -3.196   3.732  -7.560  1.00  0.00     0.047 C 
ATOM      8  C   UNL     1      -1.245   2.161  -7.378  1.00  0.00     0.014 C 
ATOM      9  C   UNL     1      -3.744   3.175  -6.243  1.00  0.00     0.004 C 
ATOM     10  C   UNL     1      -1.415   2.210  -5.902  1.00  0.00     0.009 A 
ATOM     11  C   UNL     1      -2.601   2.701  -5.407  1.00  0.00     0.021 A 
ATOM     12  C   UNL     1      -4.687   2.005  -6.533  1.00  0.00     0.017 C 
ATOM     13  C   UNL     1      -4.503   4.276  -5.498  1.00  0.00     0.017 C 
ATOM     14  C   UNL     1      -0.434   1.796  -4.912  1.00  0.00     0.094 A 
ATOM     15  S   UNL     1      -2.422   2.617  -3.652  1.00  0.00    -0.120 S 
BRANCH   6  16
ATOM     16  C   UNL     1      -2.033   2.741  -9.541  1.00  0.00     0.007 C 
ATOM     17  C   UNL     1      -2.820   3.506 -10.335  1.00  0.00     0.047 C 
BRANCH  17  18
ATOM     18  C   UNL     1      -2.833   3.288 -11.780  1.00  0.00     0.127 A 
ATOM     19  C   UNL     1      -1.775   1.597 -14.843  1.00  0.00     0.087 C 
ATOM     20  C   UNL     1      -2.380   2.456 -13.763  1.00  0.00     0.101 A 
ATOM     21  O   UNL     1      -2.108   2.369 -12.450  1.00  0.00    -0.462 OA
ATOM     22  C   UNL     1      -3.278   3.444 -13.955  1.00  0.00     0.046 A 
ATOM     23  C   UNL     1      -3.576   3.986 -12.692  1.00  0.00     0.050 A 
ENDBRANCH  17  18
ENDBRANCH   6  16
BRANCH  14  24
ATOM     24  C   UNL     1       0.839   1.269  -5.303  1.00  0.00     0.103 C 
ATOM     25  N   UNL     1       1.848   0.851  -5.614  1.00  0.00    -0.192 NA
ENDBRANCH  14  24
ENDBRANCH   1   5
BRANCH   2  26
ATOM     26  C   UNL     1       0.279   1.458  -0.001  1.00  0.00     0.174 C 
BRANCH  26  27
ATOM     27  S   UNL     1      -0.670   1.846   1.491  1.00  0.00    -0.124 SA
BRANCH  27  28
ATOM     28  C   UNL     1       0.487   1.353   2.726  1.00  0.00    -0.006 A 
ATOM     29  N   UNL     1       0.308   1.419   4.078  1.00  0.00    -0.417 NA
ATOM     30  N   UNL     1       1.683   0.852   2.520  1.00  0.00    -0.347 NA
ATOM     31  C   UNL     1       1.461   0.930   4.628  1.00  0.00     0.030 A 
ATOM     32  N   UNL     1       2.255   0.612   3.645  1.00  0.00    -0.267 NA
BRANCH  31  33
ATOM     33  C   UNL     1       1.758   0.786   6.098  1.00  0.00     0.028 C 
ATOM     34  C   UNL     1       2.310   2.106   6.639  1.00  0.00     0.014 C 
ATOM     35  C   UNL     1       0.472   0.426   6.845  1.00  0.00     0.014 C 
ENDBRANCH  31  33
ENDBRANCH  27  28
ENDBRANCH  26  27
ENDBRANCH   2  26
TORSDOF 8
