REMARK SMILES N#Cc1nc(C2CC2)oc1N1CCN(Cc2nc(O)c3sc(-c4ccc(F)cc4)cc3n2)CC1
REMARK SMILES IDX 14 1 13 2 12 3 11 4 34 5 33 6 15 7 16 8 22 9 21 10 30 11
REMARK SMILES IDX 20 12 31 13 18 14 32 15 17 16 23 17 24 18 25 19 29 20 26 21
REMARK SMILES IDX 28 22 27 23 19 24 10 26 9 27 3 28 5 29 4 30 2 31 1 32 6 33
REMARK SMILES IDX 8 34 7 35
REMARK H PARENT 19 25
REMARK Flexibility Score: inf
ROOT
ATOM      1  N   UNL     1       2.043  -4.329  -1.103  1.00  0.00    -0.292 NA
ATOM      2  C   UNL     1       1.161  -4.090   0.048  1.00  0.00     0.106 C 
ATOM      3  C   UNL     1       0.617  -2.660  -0.019  1.00  0.00     0.135 C 
ATOM      4  N   UNL     1       1.739  -1.712  -0.024  1.00  0.00    -0.338 N 
ATOM      5  C   UNL     1       2.622  -1.951  -1.175  1.00  0.00     0.135 C 
ATOM      6  C   UNL     1       3.166  -3.380  -1.108  1.00  0.00     0.106 C 
ENDROOT
BRANCH   1   7
ATOM      7  C   UNL     1       2.526  -5.716  -1.115  1.00  0.00     0.162 C 
BRANCH   7   8
ATOM      8  C   UNL     1       3.220  -5.994  -2.424  1.00  0.00     0.147 A 
ATOM      9  C   UNL     1       7.059  -6.098  -5.142  1.00  0.00     0.037 A 
ATOM     10  S   UNL     1       5.621  -6.667  -6.032  1.00  0.00    -0.128 S 
ATOM     11  C   UNL     1       6.558  -5.805  -3.912  1.00  0.00     0.049 A 
ATOM     12  C   UNL     1       4.429  -6.489  -4.731  1.00  0.00     0.115 A 
ATOM     13  C   UNL     1       5.193  -5.993  -3.650  1.00  0.00     0.089 A 
ATOM     14  C   UNL     1       3.073  -6.717  -4.601  1.00  0.00     0.232 A 
ATOM     15  N   UNL     1       4.505  -5.764  -2.503  1.00  0.00    -0.230 NA
ATOM     16  N   UNL     1       2.499  -6.463  -3.427  1.00  0.00    -0.196 NA
BRANCH   9  17
ATOM     17  C   UNL     1       8.452  -5.974  -5.623  1.00  0.00    -0.008 A 
ATOM     18  C   UNL     1       9.448  -5.498  -4.769  1.00  0.00     0.012 A 
ATOM     19  C   UNL     1      10.747  -5.391  -5.221  1.00  0.00     0.040 A 
ATOM     20  C   UNL     1       8.774  -6.328  -6.934  1.00  0.00     0.012 A 
ATOM     21  C   UNL     1      11.061  -5.743  -6.524  1.00  0.00     0.123 A 
ATOM     22  C   UNL     1      10.074  -6.211  -7.378  1.00  0.00     0.040 A 
ATOM     23  F   UNL     1      12.333  -5.630  -6.964  1.00  0.00    -0.207 F 
ENDBRANCH   9  17
BRANCH  14  24
ATOM     24  O   UNL     1       2.346  -7.193  -5.641  1.00  0.00    -0.492 OA
ATOM     25  H   UNL     1       2.801  -8.034  -5.899  1.00  0.00     0.295 HD
ENDBRANCH  14  24
ENDBRANCH   7   8
ENDBRANCH   1   7
BRANCH   4  26
ATOM     26  C   UNL     1       1.285  -0.409  -0.012  1.00  0.00     0.234 A 
ATOM     27  O   UNL     1       0.002  -0.004   0.002  1.00  0.00    -0.423 OA
ATOM     28  C   UNL     1       2.061   0.738  -0.014  1.00  0.00     0.204 A 
ATOM     29  C   UNL     1      -0.016   1.339   0.009  1.00  0.00     0.201 A 
ATOM     30  N   UNL     1       1.199   1.794   0.000  1.00  0.00    -0.200 NA
BRANCH  28  31
ATOM     31  C   UNL     1       3.491   0.802  -0.026  1.00  0.00     0.125 C 
ATOM     32  N   UNL     1       4.626   0.853  -0.037  1.00  0.00    -0.190 NA
ENDBRANCH  28  31
BRANCH  29  33
ATOM     33  C   UNL     1      -1.260   2.189   0.020  1.00  0.00     0.076 C 
ATOM     34  C   UNL     1      -1.455   3.141   1.202  1.00  0.00     0.014 C 
ATOM     35  C   UNL     1      -1.088   3.696  -0.176  1.00  0.00     0.014 C 
ENDBRANCH  29  33
ENDBRANCH   4  26
TORSDOF 7
