REMARK SMILES COC(=O)[C@H](Cc1c[nH]c2ccccc12)NCC[NH2+][C@@H](Cc1ccc2ccccc2c1)C(=O)N(C)Cc1ccccc1OC
REMARK SMILES IDX 19 1 20 4 32 5 33 6 34 7 35 8 36 9 37 10 42 11 38 12 41 13
REMARK SMILES IDX 39 14 40 15 43 16 44 17 21 18 22 19 31 20 23 21 30 22 24 23
REMARK SMILES IDX 25 24 29 25 26 26 28 27 27 28 18 29 17 30 16 31 5 33 6 34
REMARK SMILES IDX 7 35 15 36 8 37 10 38 14 39 9 40 11 41 13 42 12 44 3 45 4 46
REMARK SMILES IDX 2 47 1 48
REMARK H PARENT 19 2 19 3 16 32 9 43
REMARK Flexibility Score: inf
ROOT
ATOM      1  N   UNL     1       4.309   5.176   2.088  1.00  0.00    -0.335 N 
ATOM      2  H   UNL     1       4.527   6.159   1.871  1.00  0.00     0.347 HD
ATOM      3  H   UNL     1       3.364   4.960   1.739  1.00  0.00     0.347 HD
ENDROOT
BRANCH   1   4
ATOM      4  C   UNL     1       5.284   4.305   1.417  1.00  0.00     0.277 C 
BRANCH   4   5
ATOM      5  C   UNL     1       6.634   4.975   1.410  1.00  0.00     0.281 C 
ATOM      6  O   UNL     1       6.771   6.070   1.914  1.00  0.00    -0.268 OA
BRANCH   5   7
ATOM      7  N   UNL     1       7.690   4.358   0.844  1.00  0.00    -0.336 N 
ATOM      8  C   UNL     1       7.525   3.035   0.236  1.00  0.00     0.147 C 
BRANCH   7   9
ATOM      9  C   UNL     1       9.002   5.009   0.837  1.00  0.00     0.158 C 
BRANCH   9  10
ATOM     10  C   UNL     1       9.762   4.621   2.079  1.00  0.00     0.013 A 
ATOM     11  C   UNL     1      10.409   3.396   2.143  1.00  0.00     0.123 A 
ATOM     12  C   UNL     1       9.820   5.488   3.153  1.00  0.00     0.009 A 
ATOM     13  C   UNL     1      11.109   3.042   3.288  1.00  0.00     0.047 A 
ATOM     14  C   UNL     1      10.513   5.131   4.295  1.00  0.00     0.001 A 
ATOM     15  C   UNL     1      11.159   3.910   4.361  1.00  0.00     0.004 A 
BRANCH  11  16
ATOM     16  O   UNL     1      10.359   2.544   1.085  1.00  0.00    -0.496 OA
ATOM     17  C   UNL     1      11.049   1.300   1.222  1.00  0.00     0.278 C 
ENDBRANCH  11  16
ENDBRANCH   9  10
ENDBRANCH   7   9
ENDBRANCH   5   7
ENDBRANCH   4   5
BRANCH   4  18
ATOM     18  C   UNL     1       4.834   4.049  -0.022  1.00  0.00     0.111 C 
BRANCH  18  19
ATOM     19  C   UNL     1       3.544   3.271  -0.014  1.00  0.00    -0.041 A 
ATOM     20  C   UNL     1       2.358   3.938   0.000  1.00  0.00     0.012 A 
ATOM     21  C   UNL     1       3.583   1.877  -0.021  1.00  0.00     0.004 A 
ATOM     22  C   UNL     1       1.153   3.215   0.008  1.00  0.00    -0.018 A 
ATOM     23  C   UNL     1       2.436   1.144  -0.014  1.00  0.00     0.009 A 
ATOM     24  C   UNL     1       1.193   1.799   0.000  1.00  0.00    -0.018 A 
ATOM     25  C   UNL     1      -0.090   3.870   0.023  1.00  0.00     0.009 A 
ATOM     26  C   UNL     1      -0.013   1.076   0.008  1.00  0.00     0.009 A 
ATOM     27  C   UNL     1      -1.237   3.137   0.031  1.00  0.00     0.001 A 
ATOM     28  C   UNL     1      -1.198   1.744   0.017  1.00  0.00     0.001 A 
ENDBRANCH  18  19
ENDBRANCH   4  18
ENDBRANCH   1   4
BRANCH   1  29
ATOM     29  C   UNL     1       4.343   4.982   3.543  1.00  0.00     0.276 C 
BRANCH  29  30
ATOM     30  C   UNL     1       3.317   5.903   4.205  1.00  0.00     0.143 C 
BRANCH  30  31
ATOM     31  N   UNL     1       3.351   5.709   5.661  1.00  0.00    -0.299 NA
ATOM     32  H   UNL     1       4.295   5.925   6.011  1.00  0.00     0.123 HD
BRANCH  31  33
ATOM     33  C   UNL     1       2.376   6.580   6.331  1.00  0.00     0.169 C 
BRANCH  33  34
ATOM     34  C   UNL     1       1.980   5.963   7.674  1.00  0.00     0.068 C 
BRANCH  34  35
ATOM     35  C   UNL     1       1.256   4.663   7.436  1.00  0.00    -0.020 A 
ATOM     36  C   UNL     1       1.870   3.348   7.234  1.00  0.00     0.003 A 
ATOM     37  C   UNL     1      -0.073   4.489   7.375  1.00  0.00     0.087 A 
ATOM     38  C   UNL     1       0.806   2.446   7.054  1.00  0.00     0.046 A 
ATOM     39  C   UNL     1       3.188   2.888   7.194  1.00  0.00     0.010 A 
ATOM     40  N   UNL     1      -0.361   3.172   7.142  1.00  0.00    -0.361 N 
ATOM     41  C   UNL     1       1.083   1.100   6.837  1.00  0.00     0.026 A 
ATOM     42  C   UNL     1       3.437   1.562   6.979  1.00  0.00     0.001 A 
ATOM     43  H   UNL     1      -1.309   2.781   7.047  1.00  0.00     0.166 HD
ATOM     44  C   UNL     1       2.390   0.668   6.801  1.00  0.00     0.002 A 
ENDBRANCH  34  35
ENDBRANCH  33  34
BRANCH  33  45
ATOM     45  C   UNL     1       2.990   7.936   6.562  1.00  0.00     0.323 C 
ATOM     46  O   UNL     1       4.123   8.156   6.206  1.00  0.00    -0.250 OA
BRANCH  45  47
ATOM     47  O   UNL     1       2.277   8.902   7.165  1.00  0.00    -0.468 OA
ATOM     48  C   UNL     1       2.932  10.183   7.355  1.00  0.00     0.282 C 
ENDBRANCH  45  47
ENDBRANCH  33  45
ENDBRANCH  31  33
ENDBRANCH  30  31
ENDBRANCH  29  30
ENDBRANCH   1  29
TORSDOF 16
