REMARK SMILES O=C(CCc1nc2ccccc2c(=O)[nH]1)Nc1nc(-c2ccccn2)cs1
REMARK SMILES IDX 2 1 1 2 16 3 3 5 4 6 5 7 10 8 11 9 9 10 12 11 8 12 7 13
REMARK SMILES IDX 13 14 6 15 14 16 15 17 17 19 27 20 18 21 26 22 19 23 20 24
REMARK SMILES IDX 25 25 21 26 24 27 22 28 23 29
REMARK H PARENT 16 4 15 18
REMARK Flexibility Score: inf
ROOT
ATOM      1  C   UNL     1       3.439   6.293   0.000  1.00  0.00     0.226 C 
ATOM      2  O   UNL     1       4.487   5.682  -0.013  1.00  0.00    -0.275 OA
ATOM      3  N   UNL     1       3.444   7.640   0.007  1.00  0.00    -0.302 N 
ATOM      4  H   UNL     1       2.554   8.159   0.019  1.00  0.00     0.172 HD
ENDROOT
BRANCH   1   5
ATOM      5  C   UNL     1       2.131   5.544   0.010  1.00  0.00     0.108 C 
BRANCH   5   6
ATOM      6  C   UNL     1       2.405   4.039  -0.001  1.00  0.00     0.085 C 
BRANCH   6   7
ATOM      7  C   UNL     1       1.097   3.290   0.009  1.00  0.00     0.110 A 
ATOM      8  C   UNL     1      -3.673   2.064   0.048  1.00  0.00     0.001 A 
ATOM      9  C   UNL     1      -2.517   1.315   0.033  1.00  0.00     0.016 A 
ATOM     10  C   UNL     1      -3.615   3.452   0.055  1.00  0.00     0.002 A 
ATOM     11  C   UNL     1      -1.281   1.960   0.019  1.00  0.00     0.065 A 
ATOM     12  C   UNL     1      -2.405   4.108   0.047  1.00  0.00     0.029 A 
ATOM     13  C   UNL     1      -1.219   3.371   0.032  1.00  0.00     0.078 A 
ATOM     14  C   UNL     1      -0.014   1.213   0.009  1.00  0.00     0.258 A 
ATOM     15  N   UNL     1      -0.005   3.976   0.023  1.00  0.00    -0.235 NA
ATOM     16  O   UNL     1       0.002  -0.004   0.002  1.00  0.00    -0.269 OA
ATOM     17  N   UNL     1       1.132   1.932   0.002  1.00  0.00    -0.310 N 
ATOM     18  H   UNL     1       2.040   1.445  -0.009  1.00  0.00     0.171 HD
ENDBRANCH   6   7
ENDBRANCH   5   6
ENDBRANCH   1   5
BRANCH   3  19
ATOM     19  C   UNL     1       4.650   8.331  -0.002  1.00  0.00     0.189 A 
ATOM     20  S   UNL     1       6.319   7.691  -0.014  1.00  0.00    -0.105 S 
ATOM     21  N   UNL     1       4.867   9.632   0.003  1.00  0.00    -0.218 NA
ATOM     22  C   UNL     1       7.162   9.268  -0.022  1.00  0.00     0.099 A 
ATOM     23  C   UNL     1       6.097  10.125  -0.007  1.00  0.00     0.102 A 
BRANCH  23  24
ATOM     24  C   UNL     1       6.315  11.591  -0.001  1.00  0.00     0.090 A 
ATOM     25  N   UNL     1       7.553  12.072  -0.005  1.00  0.00    -0.255 NA
ATOM     26  C   UNL     1       5.220  12.454   0.014  1.00  0.00     0.031 A 
ATOM     27  C   UNL     1       7.789  13.368  -0.005  1.00  0.00     0.112 A 
ATOM     28  C   UNL     1       5.440  13.819   0.019  1.00  0.00     0.004 A 
ATOM     29  C   UNL     1       6.750  14.279   0.010  1.00  0.00     0.020 A 
ENDBRANCH  23  24
ENDBRANCH   3  19
TORSDOF 5
