REMARK SMILES C[C@]1(C(=O)NC2CCCCCCC2)Cn2c(cc3occc32)C(=O)N1CC[NH+]1CCCC1
REMARK SMILES IDX 3 1 4 2 5 3 2 5 1 6 25 7 14 8 23 9 15 10 16 11 24 12 22 13
REMARK SMILES IDX 17 14 18 15 21 16 19 17 20 18 26 19 27 20 28 21 29 22 32 23
REMARK SMILES IDX 30 25 31 26 6 27 13 28 12 29 11 30 10 31 7 33 8 34 9 35
REMARK H PARENT 5 4 28 24
REMARK Flexibility Score: 80.00
ROOT
ATOM      1  C   UNL     1       1.096  -2.209  -4.584  1.00  0.00     0.247 C 
ATOM      2  O   UNL     1       1.434  -1.055  -4.744  1.00  0.00    -0.272 OA
ATOM      3  N   UNL     1       1.381  -2.841  -3.428  1.00  0.00    -0.351 N 
ATOM      4  H   UNL     1       1.150  -3.838  -3.316  1.00  0.00     0.163 HD
ENDROOT
BRANCH   1   5
ATOM      5  C   UNL     1       0.357  -2.936  -5.678  1.00  0.00     0.137 C 
ATOM      6  C   UNL     1       0.139  -1.976  -6.849  1.00  0.00     0.047 C 
ATOM      7  N   UNL     1      -0.942  -3.358  -5.168  1.00  0.00    -0.315 N 
ATOM      8  C   UNL     1       1.211  -4.110  -6.154  1.00  0.00     0.161 C 
ATOM      9  C   UNL     1      -1.668  -4.327  -5.774  1.00  0.00     0.271 C 
ATOM     10  N   UNL     1       0.394  -4.989  -6.996  1.00  0.00    -0.331 N 
ATOM     11  C   UNL     1      -0.981  -5.109  -6.809  1.00  0.00     0.111 A 
ATOM     12  O   UNL     1      -2.829  -4.539  -5.476  1.00  0.00    -0.267 OA
ATOM     13  C   UNL     1       0.759  -5.799  -8.029  1.00  0.00     0.088 A 
ATOM     14  C   UNL     1      -1.467  -6.005  -7.714  1.00  0.00     0.081 A 
ATOM     15  C   UNL     1      -0.386  -6.447  -8.492  1.00  0.00     0.152 A 
ATOM     16  C   UNL     1       1.825  -6.263  -8.837  1.00  0.00     0.069 A 
ATOM     17  O   UNL     1      -0.014  -7.251  -9.510  1.00  0.00    -0.463 OA
ATOM     18  C   UNL     1       1.308  -7.138  -9.716  1.00  0.00     0.198 A 
BRANCH   7  19
ATOM     19  C   UNL     1      -1.478  -2.716  -3.966  1.00  0.00     0.182 C 
BRANCH  19  20
ATOM     20  C   UNL     1      -2.438  -1.596  -4.371  1.00  0.00     0.284 C 
BRANCH  20  21
ATOM     21  N   UNL     1      -3.096  -1.032  -3.154  1.00  0.00    -0.333 N 
ATOM     22  C   UNL     1      -2.086  -0.517  -2.216  1.00  0.00     0.262 C 
ATOM     23  C   UNL     1      -3.967   0.088  -3.516  1.00  0.00     0.262 C 
ATOM     24  H   UNL     1      -3.643  -1.788  -2.719  1.00  0.00     0.348 HD
ATOM     25  C   UNL     1      -2.917   0.444  -1.330  1.00  0.00     0.067 C 
ATOM     26  C   UNL     1      -3.903   1.079  -2.338  1.00  0.00     0.067 C 
ENDBRANCH  20  21
ENDBRANCH  19  20
ENDBRANCH   7  19
ENDBRANCH   1   5
BRANCH   3  27
ATOM     27  C   UNL     1       2.020  -2.109  -2.331  1.00  0.00     0.082 C 
BRANCH  27  28
ATOM     28  C   UNL     1       0.952  -1.631  -1.346  1.00  0.00     0.025 C 
BRANCH  28  29
ATOM     29  C   UNL     1       1.104  -0.127  -1.117  1.00  0.00     0.002 C 
BRANCH  29  30
ATOM     30  C   UNL     1       2.584   0.213  -0.931  1.00  0.00     0.000 C 
BRANCH  30  31
ATOM     31  C   UNL     1       3.032  -0.208   0.470  1.00  0.00     0.000 CG0
ATOM     32  G   UNL     1       3.210  -1.727   0.513  1.00  0.00     0.000 G0
ENDBRANCH  30  31
ENDBRANCH  29  30
ENDBRANCH  28  29
ENDBRANCH  27  28
BRANCH  27  33
ATOM     33  C   UNL     1       3.005  -3.030  -1.609  1.00  0.00     0.025 C 
BRANCH  33  34
ATOM     34  C   UNL     1       3.948  -2.191  -0.745  1.00  0.00     0.002 C 
BRANCH  34  35
ATOM     35  C   UNL     1       3.210  -1.727   0.513  1.00  0.00     0.000 CG0
ATOM     36  G   UNL     1       3.032  -0.208   0.470  1.00  0.00     0.000 G0
ENDBRANCH  34  35
ENDBRANCH  33  34
ENDBRANCH  27  33
ENDBRANCH   3  27
TORSDOF 5
