REMARK SMILES COc1cc([C@@H]2[NH2+][C@H](C)Cc3c2[nH]c2ccc(SC)cc32)cc(OC)c1OC
REMARK SMILES IDX 9 1 8 2 10 3 11 4 21 5 20 6 17 7 16 8 15 9 14 10 13 11 12 12
REMARK SMILES IDX 6 13 7 14 5 18 4 19 22 20 3 21 23 22 26 23 2 24 1 25 24 26
REMARK SMILES IDX 25 27 27 28 28 29 18 30 19 31
REMARK H PARENT 13 15 7 16 7 17
REMARK Flexibility Score: inf
ROOT
ATOM      1  C   UNL     1      -7.798   1.741   6.208  1.00  0.00     0.075 C 
ATOM      2  C   UNL     1      -7.387   0.869   5.020  1.00  0.00     0.184 C 
ATOM      3  C   UNL     1      -6.114   1.441   4.380  1.00  0.00     0.103 C 
ATOM      4  C   UNL     1      -5.899   0.735   3.067  1.00  0.00    -0.007 A 
ATOM      5  C   UNL     1      -4.697   0.687   2.243  1.00  0.00     0.004 A 
ATOM      6  C   UNL     1      -3.416   1.232   2.353  1.00  0.00     0.025 A 
ATOM      7  C   UNL     1      -2.480   0.986   1.367  1.00  0.00     0.008 A 
ATOM      8  C   UNL     1      -2.813   0.201   0.263  1.00  0.00     0.017 A 
ATOM      9  C   UNL     1      -4.071  -0.345   0.147  1.00  0.00     0.028 A 
ATOM     10  C   UNL     1      -5.027  -0.108   1.129  1.00  0.00     0.046 A 
ATOM     11  N   UNL     1      -6.341  -0.505   1.283  1.00  0.00    -0.353 N 
ATOM     12  C   UNL     1      -6.847   0.006   2.443  1.00  0.00     0.083 A 
ATOM     13  C   UNL     1      -8.241  -0.176   2.998  1.00  0.00     0.262 C 
ATOM     14  N   UNL     1      -8.480   0.861   4.027  1.00  0.00    -0.333 N 
ATOM     15  H   UNL     1      -6.862  -1.098   0.622  1.00  0.00     0.166 HD
ATOM     16  H   UNL     1      -9.373   0.667   4.503  1.00  0.00     0.347 HD
ATOM     17  H   UNL     1      -8.537   1.784   3.573  1.00  0.00     0.347 HD
ENDROOT
BRANCH  13  18
ATOM     18  C   UNL     1      -9.252  -0.020   1.891  1.00  0.00     0.023 A 
ATOM     19  C   UNL     1      -9.805  -1.140   1.300  1.00  0.00     0.061 A 
ATOM     20  C   UNL     1      -9.628   1.243   1.474  1.00  0.00     0.061 A 
ATOM     21  C   UNL     1     -10.736  -1.001   0.281  1.00  0.00     0.165 A 
ATOM     22  C   UNL     1     -10.554   1.391   0.453  1.00  0.00     0.165 A 
ATOM     23  C   UNL     1     -11.112   0.268  -0.145  1.00  0.00     0.203 A 
BRANCH  21  24
ATOM     24  O   UNL     1     -11.279  -2.103  -0.300  1.00  0.00    -0.493 OA
ATOM     25  C   UNL     1     -10.845  -3.374   0.188  1.00  0.00     0.278 C 
ENDBRANCH  21  24
BRANCH  22  26
ATOM     26  O   UNL     1     -10.919   2.635   0.039  1.00  0.00    -0.493 OA
ATOM     27  C   UNL     1     -10.305   3.744   0.698  1.00  0.00     0.278 C 
ENDBRANCH  22  26
BRANCH  23  28
ATOM     28  O   UNL     1     -12.024   0.409  -1.145  1.00  0.00    -0.490 OA
ATOM     29  C   UNL     1     -13.399   0.486  -0.762  1.00  0.00     0.278 C 
ENDBRANCH  23  28
ENDBRANCH  13  18
BRANCH   7  30
ATOM     30  S   UNL     1      -0.862   1.671   1.500  1.00  0.00    -0.130 SA
ATOM     31  C   UNL     1      -0.013   1.086   0.008  1.00  0.00     0.091 C 
ENDBRANCH   7  30
TORSDOF 5
