REMARK SMILES C=c1[nH]n(-c2ccccc2)c(=O)/c1=C\Nc1scc(-c2ccc(Br)cc2)c1C(=O)OCC
REMARK SMILES IDX 27 1 19 2 18 3 17 4 16 5 28 6 29 7 30 8 31 9 32 10 15 11
REMARK SMILES IDX 14 13 13 14 11 15 2 16 4 17 12 18 1 19 3 20 5 22 10 23 6 24
REMARK SMILES IDX 9 25 7 26 8 27 20 28 26 29 21 30 25 31 22 32 23 33 24 34
REMARK H PARENT 15 12 3 21
REMARK Flexibility Score: inf
ROOT
ATOM      1  C   UNL     1       0.753  -5.248  -0.028  1.00  0.00     0.102 A 
ATOM      2  C   UNL     1       1.517  -6.481  -0.047  1.00  0.00     0.009 A 
ATOM      3  C   UNL     1       2.869  -6.362  -0.060  1.00  0.00     0.076 A 
ATOM      4  S   UNL     1       3.126  -4.600  -0.053  1.00  0.00    -0.125 S 
ATOM      5  C   UNL     1       1.480  -4.064  -0.035  1.00  0.00     0.108 A 
ENDROOT
BRANCH   1   6
ATOM      6  C   UNL     1      -0.709  -5.251  -0.007  1.00  0.00     0.341 C 
ATOM      7  O   UNL     1      -1.333  -5.248  -1.052  1.00  0.00    -0.246 OA
BRANCH   6   8
ATOM      8  O   UNL     1      -1.367  -5.256   1.171  1.00  0.00    -0.462 OA
BRANCH   8   9
ATOM      9  C   UNL     1      -2.795  -5.258   1.117  1.00  0.00     0.230 C 
ATOM     10  C   UNL     1      -3.359  -5.264   2.539  1.00  0.00     0.049 C 
ENDBRANCH   8   9
ENDBRANCH   6   8
ENDBRANCH   1   6
BRANCH   5  11
ATOM     11  N   UNL     1       1.003  -2.765  -0.023  1.00  0.00    -0.352 N 
ATOM     12  H   UNL     1      -0.012  -2.590  -0.012  1.00  0.00     0.167 HD
BRANCH  11  13
ATOM     13  C   UNL     1       1.877  -1.716  -0.025  1.00  0.00     0.099 C 
ATOM     14  C   UNL     1       1.407  -0.438  -0.014  1.00  0.00     0.082 A 
ATOM     15  C   UNL     1       0.002  -0.004   0.002  1.00  0.00     0.280 A 
ATOM     16  C   UNL     1       2.204   0.815  -0.015  1.00  0.00     0.062 A 
ATOM     17  N   UNL     1      -0.016   1.340   0.009  1.00  0.00    -0.219 N 
ATOM     18  O   UNL     1      -0.973  -0.733   0.008  1.00  0.00    -0.267 OA
ATOM     19  C   UNL     1       3.535   0.921  -0.026  1.00  0.00     0.039 C 
ATOM     20  N   UNL     1       1.278   1.860  -0.000  1.00  0.00    -0.291 N 
ATOM     21  H   UNL     1       1.515   2.863   0.003  1.00  0.00     0.188 HD
BRANCH  17  22
ATOM     22  C   UNL     1      -1.180   2.115   0.019  1.00  0.00     0.066 A 
ATOM     23  C   UNL     1      -1.093   3.501   0.026  1.00  0.00     0.028 A 
ATOM     24  C   UNL     1      -2.426   1.501   0.016  1.00  0.00     0.028 A 
ATOM     25  C   UNL     1      -2.244   4.264   0.036  1.00  0.00     0.002 A 
ATOM     26  C   UNL     1      -3.573   2.269   0.032  1.00  0.00     0.002 A 
ATOM     27  C   UNL     1      -3.483   3.649   0.039  1.00  0.00     0.000 A 
ENDBRANCH  17  22
ENDBRANCH  11  13
ENDBRANCH   5  11
BRANCH   2  28
ATOM     28  C   UNL     1       0.853  -7.806  -0.048  1.00  0.00    -0.017 A 
ATOM     29  C   UNL     1       1.223  -8.774  -0.980  1.00  0.00     0.010 A 
ATOM     30  C   UNL     1      -0.141  -8.092   0.888  1.00  0.00     0.010 A 
ATOM     31  C   UNL     1       0.602 -10.006  -0.976  1.00  0.00     0.016 A 
ATOM     32  C   UNL     1      -0.759  -9.325   0.880  1.00  0.00     0.016 A 
ATOM     33  C   UNL     1      -0.388 -10.282  -0.048  1.00  0.00     0.018 A 
ATOM     34  Br  UNL     1      -1.235 -11.973  -0.049  1.00  0.00    -0.051 Br
ENDBRANCH   2  28
TORSDOF 7
