REMARK SMILES CC[C@@H](C)Cc1ccc2c(c1O)C(=O)O[C@@H](C[C@H](/C=C\C=C\C=C/c1coc(C[C@@H](O)[C@@H](C)[C@@H](O)CC)n1)OC)C2
REMARK SMILES IDX 21 1 22 2 20 3 19 4 18 5 17 6 16 7 6 8 11 9 7 10 10 11 8 12
REMARK SMILES IDX 9 13 13 14 41 15 14 16 15 17 5 18 3 19 4 20 2 21 1 22 12 23
REMARK SMILES IDX 39 25 40 26 23 27 24 28 25 29 38 30 26 31 28 32 27 33 29 34
REMARK SMILES IDX 30 35 32 36 33 37 34 38 36 39 37 40 35 41 31 43
REMARK H PARENT 12 24 35 42 31 44
REMARK Flexibility Score: inf
ROOT
ATOM      1  C   UNL     1       7.171   0.051  -9.524  1.00  0.00    -0.000 C 
ATOM      2  C   UNL     1       8.215  -0.480 -10.200  1.00  0.00     0.000 C 
ENDROOT
BRANCH   1   3
ATOM      3  C   UNL     1       6.696   1.396  -9.850  1.00  0.00    -0.002 C 
ATOM      4  C   UNL     1       5.736   1.961  -9.116  1.00  0.00     0.005 C 
BRANCH   4   5
ATOM      5  C   UNL     1       5.235   1.273  -7.872  1.00  0.00     0.144 C 
BRANCH   5   6
ATOM      6  C   UNL     1       5.595   2.113  -6.645  1.00  0.00     0.082 C 
BRANCH   6   7
ATOM      7  C   UNL     1       4.871   3.459  -6.717  1.00  0.00     0.184 C 
ATOM      8  C   UNL     1       3.725   8.277  -5.803  1.00  0.00    -0.005 A 
ATOM      9  C   UNL     1       4.018   7.546  -6.946  1.00  0.00     0.133 A 
ATOM     10  C   UNL     1       3.867   7.696  -4.558  1.00  0.00     0.008 A 
ATOM     11  C   UNL     1       4.465   6.226  -6.824  1.00  0.00     0.105 A 
ATOM     12  C   UNL     1       4.310   6.390  -4.436  1.00  0.00     0.005 A 
ATOM     13  C   UNL     1       4.612   5.650  -5.561  1.00  0.00    -0.026 A 
ATOM     14  C   UNL     1       4.780   5.428  -8.028  1.00  0.00     0.342 C 
ATOM     15  C   UNL     1       5.100   4.232  -5.418  1.00  0.00     0.082 C 
ATOM     16  O   UNL     1       4.502   5.826  -9.142  1.00  0.00    -0.246 OA
ATOM     17  O   UNL     1       5.394   4.233  -7.836  1.00  0.00    -0.458 OA
BRANCH   8  18
ATOM     18  C   UNL     1       3.249   9.702  -5.920  1.00  0.00     0.042 C 
BRANCH  18  19
ATOM     19  C   UNL     1       4.456  10.634  -6.042  1.00  0.00    -0.010 C 
ATOM     20  C   UNL     1       5.266  10.591  -4.745  1.00  0.00     0.008 C 
BRANCH  19  21
ATOM     21  C   UNL     1       3.972  12.064  -6.294  1.00  0.00     0.000 C 
ATOM     22  C   UNL     1       5.177  12.974  -6.539  1.00  0.00     0.004 C 
ENDBRANCH  19  21
ENDBRANCH  18  19
ENDBRANCH   8  18
BRANCH   9  23
ATOM     23  O   UNL     1       3.877   8.110  -8.172  1.00  0.00    -0.507 OA
ATOM     24  H   UNL     1       4.442   8.922  -8.144  1.00  0.00     0.293 HD
ENDBRANCH   9  23
ENDBRANCH   6   7
ENDBRANCH   5   6
BRANCH   5  25
ATOM     25  O   UNL     1       3.816   1.125  -7.948  1.00  0.00    -0.377 OA
ATOM     26  C   UNL     1       3.302   0.042  -7.171  1.00  0.00     0.195 C 
ENDBRANCH   5  25
ENDBRANCH   4   5
ENDBRANCH   1   3
BRANCH   2  27
ATOM     27  C   UNL     1       8.675  -1.780  -9.884  1.00  0.00     0.002 C 
ATOM     28  C   UNL     1       9.782  -2.269 -10.484  1.00  0.00     0.032 C 
BRANCH  28  29
ATOM     29  C   UNL     1      10.606  -1.395 -11.333  1.00  0.00     0.102 A 
ATOM     30  N   UNL     1      10.432  -0.060 -11.528  1.00  0.00    -0.214 NA
ATOM     31  C   UNL     1      11.683  -1.772 -12.078  1.00  0.00     0.225 A 
ATOM     32  C   UNL     1      11.355   0.363 -12.340  1.00  0.00     0.197 A 
ATOM     33  O   UNL     1      12.136  -0.666 -12.697  1.00  0.00    -0.448 OA
BRANCH  32  34
ATOM     34  C   UNL     1      11.518   1.785 -12.810  1.00  0.00     0.129 C 
BRANCH  34  35
ATOM     35  C   UNL     1      12.442   2.537 -11.850  1.00  0.00     0.129 C 
BRANCH  35  36
ATOM     36  C   UNL     1      12.508   4.011 -12.255  1.00  0.00     0.044 C 
ATOM     37  C   UNL     1      11.106   4.620 -12.195  1.00  0.00     0.013 C 
BRANCH  36  38
ATOM     38  C   UNL     1      13.432   4.763 -11.295  1.00  0.00     0.119 C 
BRANCH  38  39
ATOM     39  C   UNL     1      13.499   6.236 -11.700  1.00  0.00     0.029 C 
ATOM     40  C   UNL     1      14.321   7.012 -10.669  1.00  0.00     0.006 C 
ENDBRANCH  38  39
BRANCH  38  41
ATOM     41  O   UNL     1      14.742   4.194 -11.350  1.00  0.00    -0.393 OA
ATOM     42  H   UNL     1      15.095   4.267 -12.272  1.00  0.00     0.210 HD
ENDBRANCH  38  41
ENDBRANCH  36  38
ENDBRANCH  35  36
BRANCH  35  43
ATOM     43  O   UNL     1      13.752   1.968 -11.906  1.00  0.00    -0.392 OA
ATOM     44  H   UNL     1      14.105   2.041 -12.828  1.00  0.00     0.210 HD
ENDBRANCH  35  43
ENDBRANCH  34  35
ENDBRANCH  32  34
ENDBRANCH  28  29
ENDBRANCH   2  27
TORSDOF 18
