REMARK SMILES COc1ccc(CNc2nnc(SCC(=O)N[C@H](C)[C@@H](c3ccccc3)[NH+]3CCCC3)s2)cc1
REMARK SMILES IDX 13 1 14 2 15 3 17 4 16 6 18 7 19 8 20 9 21 10 26 11 22 12
REMARK SMILES IDX 25 13 23 14 24 15 27 16 31 17 28 18 30 20 29 21 12 22 32 23
REMARK SMILES IDX 11 24 9 25 10 26 8 27 7 29 6 30 33 31 5 32 34 33 4 34 3 35
REMARK SMILES IDX 2 36 1 37
REMARK H PARENT 17 5 27 19 8 28
REMARK Flexibility Score: inf
ROOT
ATOM      1  S   UNL     1      -1.076  -2.504   0.161  1.00  0.00    -0.084 SA
ENDROOT
BRANCH   1   2
ATOM      2  C   UNL     1      -1.365  -0.714   0.175  1.00  0.00     0.177 C 
BRANCH   2   3
ATOM      3  C   UNL     1      -0.049   0.009   0.055  1.00  0.00     0.230 C 
ATOM      4  N   UNL     1      -0.018   1.357   0.044  1.00  0.00    -0.347 N 
ATOM      5  H   UNL     1      -0.895   1.892   0.117  1.00  0.00     0.164 HD
ATOM      6  O   UNL     1       0.984  -0.622  -0.032  1.00  0.00    -0.274 OA
BRANCH   4   7
ATOM      7  C   UNL     1       1.262   2.059  -0.073  1.00  0.00     0.142 C 
ATOM      8  C   UNL     1       1.874   2.238   1.317  1.00  0.00     0.038 C 
BRANCH   7   9
ATOM      9  C   UNL     1       1.034   3.431  -0.711  1.00  0.00     0.237 C 
BRANCH   9  10
ATOM     10  C   UNL     1       0.003   4.190   0.084  1.00  0.00     0.011 A 
ATOM     11  C   UNL     1      -1.306   4.244  -0.355  1.00  0.00     0.010 A 
ATOM     12  C   UNL     1       0.365   4.827   1.256  1.00  0.00     0.010 A 
ATOM     13  C   UNL     1      -2.252   4.939   0.374  1.00  0.00     0.001 A 
ATOM     14  C   UNL     1      -0.580   5.526   1.984  1.00  0.00     0.001 A 
ATOM     15  C   UNL     1      -1.889   5.580   1.543  1.00  0.00     0.000 A 
ENDBRANCH   9  10
BRANCH   9  16
ATOM     16  N   UNL     1       2.296   4.183  -0.719  1.00  0.00    -0.327 N 
ATOM     17  C   UNL     1       2.134   5.485  -1.401  1.00  0.00     0.263 C 
ATOM     18  C   UNL     1       3.344   3.456  -1.480  1.00  0.00     0.263 C 
ATOM     19  H   UNL     1       2.565   4.306   0.268  1.00  0.00     0.348 HD
ATOM     20  C   UNL     1       3.461   5.788  -2.120  1.00  0.00     0.067 C 
ATOM     21  C   UNL     1       4.365   4.568  -1.829  1.00  0.00     0.067 C 
ENDBRANCH   9  16
ENDBRANCH   7   9
ENDBRANCH   4   7
ENDBRANCH   2   3
ENDBRANCH   1   2
BRANCH   1  22
ATOM     22  C   UNL     1      -2.689  -3.198   0.307  1.00  0.00     0.176 A 
ATOM     23  S   UNL     1      -3.183  -4.914   0.354  1.00  0.00    -0.069 S 
ATOM     24  N   UNL     1      -3.855  -2.590   0.405  1.00  0.00    -0.130 NA
ATOM     25  C   UNL     1      -4.942  -4.650   0.512  1.00  0.00     0.206 A 
ATOM     26  N   UNL     1      -5.008  -3.333   0.510  1.00  0.00    -0.119 NA
BRANCH  25  27
ATOM     27  N   UNL     1      -5.968  -5.582   0.608  1.00  0.00    -0.356 N 
ATOM     28  H   UNL     1      -5.752  -6.589   0.595  1.00  0.00     0.163 HD
BRANCH  27  29
ATOM     29  C   UNL     1      -7.358  -5.134   0.727  1.00  0.00     0.151 C 
BRANCH  29  30
ATOM     30  C   UNL     1      -8.267  -6.332   0.813  1.00  0.00    -0.029 A 
ATOM     31  C   UNL     1      -8.579  -6.874   2.046  1.00  0.00     0.009 A 
ATOM     32  C   UNL     1      -8.792  -6.885  -0.340  1.00  0.00     0.009 A 
ATOM     33  C   UNL     1      -9.412  -7.973   2.128  1.00  0.00     0.047 A 
ATOM     34  C   UNL     1      -9.622  -7.987  -0.264  1.00  0.00     0.047 A 
ATOM     35  C   UNL     1      -9.936  -8.532   0.972  1.00  0.00     0.118 A 
BRANCH  35  36
ATOM     36  O   UNL     1     -10.756  -9.614   1.050  1.00  0.00    -0.497 OA
ATOM     37  C   UNL     1     -11.259 -10.137  -0.181  1.00  0.00     0.278 C 
ENDBRANCH  35  36
ENDBRANCH  29  30
ENDBRANCH  27  29
ENDBRANCH  25  27
ENDBRANCH   1  22
TORSDOF 11
