REMARK SMILES CCCCn1c(S[C@H](C)c2nc3sc(C)c(C)c3c(=O)[nH]2)nc2cc(S(N)(=O)=O)ccc21
REMARK SMILES IDX 5 1 32 2 31 3 30 4 25 5 24 6 23 7 22 8 6 9 4 10 3 11 2 12
REMARK SMILES IDX 1 13 7 14 8 15 9 16 10 17 11 18 21 19 12 20 19 21 18 23
REMARK SMILES IDX 13 24 20 25 16 26 14 27 17 28 15 29 26 30 28 31 29 32 27 33
REMARK H PARENT 21 22 27 34 27 35
REMARK Flexibility Score: inf
ROOT
ATOM      1  N   UNL     1      -1.413  -1.998   0.005  1.00  0.00    -0.319 N 
ATOM      2  C   UNL     1      -1.392  -2.826   1.116  1.00  0.00     0.069 A 
ATOM      3  C   UNL     1      -1.381  -2.599   2.483  1.00  0.00     0.030 A 
ATOM      4  C   UNL     1      -1.359  -3.667   3.357  1.00  0.00     0.024 A 
ATOM      5  C   UNL     1      -1.347  -4.968   2.876  1.00  0.00     0.084 A 
ATOM      6  C   UNL     1      -1.357  -5.212   1.521  1.00  0.00     0.052 A 
ATOM      7  C   UNL     1      -1.379  -4.141   0.623  1.00  0.00     0.091 A 
ATOM      8  N   UNL     1      -1.394  -4.061  -0.733  1.00  0.00    -0.222 NA
ATOM      9  C   UNL     1      -1.419  -2.803  -1.099  1.00  0.00     0.169 A 
ENDROOT
BRANCH   1  10
ATOM     10  C   UNL     1      -1.433  -0.534   0.013  1.00  0.00     0.125 C 
BRANCH  10  11
ATOM     11  C   UNL     1       0.002  -0.004   0.002  1.00  0.00     0.022 C 
BRANCH  11  12
ATOM     12  C   UNL     1      -0.019   1.526   0.010  1.00  0.00    -0.002 C 
ATOM     13  C   UNL     1       1.417   2.055  -0.000  1.00  0.00     0.004 C 
ENDBRANCH  11  12
ENDBRANCH  10  11
ENDBRANCH   1  10
BRANCH   9  14
ATOM     14  S   UNL     1      -1.452  -2.234  -2.767  1.00  0.00    -0.077 SA
BRANCH  14  15
ATOM     15  C   UNL     1      -1.443  -3.819  -3.640  1.00  0.00     0.118 C 
ATOM     16  C   UNL     1      -0.121  -4.542  -3.372  1.00  0.00     0.028 C 
BRANCH  15  17
ATOM     17  C   UNL     1      -1.592  -3.578  -5.120  1.00  0.00     0.123 A 
ATOM     18  N   UNL     1      -2.092  -4.519  -5.876  1.00  0.00    -0.223 NA
ATOM     19  N   UNL     1      -1.209  -2.385  -5.644  1.00  0.00    -0.309 N 
ATOM     20  C   UNL     1      -2.238  -4.340  -7.186  1.00  0.00     0.131 A 
ATOM     21  C   UNL     1      -1.319  -2.131  -6.961  1.00  0.00     0.259 A 
ATOM     22  H   UNL     1      -0.827  -1.660  -5.020  1.00  0.00     0.171 HD
ATOM     23  C   UNL     1      -1.865  -3.141  -7.819  1.00  0.00     0.080 A 
ATOM     24  S   UNL     1      -2.856  -5.335  -8.518  1.00  0.00    -0.120 S 
ATOM     25  O   UNL     1      -0.966  -1.056  -7.415  1.00  0.00    -0.269 OA
ATOM     26  C   UNL     1      -2.089  -3.108  -9.252  1.00  0.00    -0.022 A 
ATOM     27  C   UNL     1      -2.619  -4.183  -9.857  1.00  0.00     0.007 A 
ATOM     28  C   UNL     1      -1.732  -1.881 -10.052  1.00  0.00     0.046 C 
ATOM     29  C   UNL     1      -2.936  -4.371 -11.319  1.00  0.00     0.057 C 
ENDBRANCH  15  17
ENDBRANCH  14  15
ENDBRANCH   9  14
BRANCH   5  30
ATOM     30  S   UNL     1      -1.318  -6.318   4.007  1.00  0.00     0.238 S 
ATOM     31  O   UNL     1      -0.759  -7.422   3.308  1.00  0.00    -0.207 OA
ATOM     32  O   UNL     1      -0.762  -5.822   5.217  1.00  0.00    -0.207 OA
BRANCH  30  33
ATOM     33  N   UNL     1      -2.891  -6.715   4.337  1.00  0.00    -0.225 NA
ATOM     34  H   UNL     1      -3.167  -7.704   4.417  1.00  0.00     0.137 HD
ATOM     35  H   UNL     1      -3.594  -5.972   4.461  1.00  0.00     0.137 HD
ENDBRANCH  30  33
ENDBRANCH   5  30
TORSDOF 8
