REMARK SMILES CC1CC[NH+]([C@H](CNC(=O)C[C@@H]2Sc3ccc(Cl)cc3NC2=O)c2cccs2)CC1
REMARK SMILES IDX 8 1 9 2 10 3 7 5 6 6 5 7 1 8 2 9 30 10 3 11 29 12 4 13 24 15
REMARK SMILES IDX 28 16 25 17 27 18 26 19 11 20 12 21 13 22 22 23 14 24 23 25
REMARK SMILES IDX 21 26 20 27 15 28 19 30 16 31 17 32 18 33
REMARK H PARENT 8 4 5 14 21 29
REMARK Flexibility Score: inf
ROOT
ATOM      1  N   UNL     1      -2.041   1.943   1.073  1.00  0.00    -0.350 N 
ATOM      2  C   UNL     1      -2.763   2.725   1.899  1.00  0.00     0.221 C 
ATOM      3  O   UNL     1      -2.206   3.545   2.599  1.00  0.00    -0.275 OA
ATOM      4  H   UNL     1      -2.514   1.247   0.479  1.00  0.00     0.163 HD
ENDROOT
BRANCH   1   5
ATOM      5  C   UNL     1      -0.584   2.083   1.018  1.00  0.00     0.186 C 
BRANCH   5   6
ATOM      6  C   UNL     1      -0.013   1.086   0.008  1.00  0.00     0.244 C 
BRANCH   6   7
ATOM      7  N   UNL     1      -0.697   1.267  -1.289  1.00  0.00    -0.327 N 
ATOM      8  C   UNL     1      -1.721   2.172  -5.337  1.00  0.00     0.008 C 
ATOM      9  C   UNL     1      -0.877   2.049  -4.067  1.00  0.00    -0.003 C 
ATOM     10  C   UNL     1      -1.515   2.873  -2.946  1.00  0.00     0.065 C 
ATOM     11  C   UNL     1      -0.811   0.581  -3.637  1.00  0.00     0.065 C 
ATOM     12  C   UNL     1      -0.701   2.697  -1.663  1.00  0.00     0.263 C 
ATOM     13  C   UNL     1      -0.017   0.471  -2.334  1.00  0.00     0.263 C 
ATOM     14  H   UNL     1      -1.670   0.942  -1.203  1.00  0.00     0.348 HD
ENDBRANCH   6   7
BRANCH   6  15
ATOM     15  C   UNL     1       1.470   1.313  -0.139  1.00  0.00     0.064 A 
ATOM     16  S   UNL     1       2.328   2.663  -0.932  1.00  0.00    -0.143 S 
ATOM     17  C   UNL     1       2.498   0.548   0.302  1.00  0.00     0.022 A 
ATOM     18  C   UNL     1       3.998   2.113  -0.628  1.00  0.00     0.065 A 
ATOM     19  C   UNL     1       3.794   0.955   0.046  1.00  0.00     0.012 A 
ENDBRANCH   6  15
ENDBRANCH   5   6
ENDBRANCH   1   5
BRANCH   2  20
ATOM     20  C   UNL     1      -4.262   2.581   1.956  1.00  0.00     0.124 C 
BRANCH  20  21
ATOM     21  C   UNL     1      -4.833   3.578   2.966  1.00  0.00     0.150 C 
ATOM     22  S   UNL     1      -4.274   3.141   4.641  1.00  0.00    -0.110 SA
ATOM     23  C   UNL     1      -6.338   3.524   2.937  1.00  0.00     0.238 C 
ATOM     24  C   UNL     1      -5.282   1.743   5.027  1.00  0.00     0.032 A 
ATOM     25  O   UNL     1      -6.934   4.359   2.289  1.00  0.00    -0.273 OA
ATOM     26  N   UNL     1      -7.045   2.605   3.586  1.00  0.00    -0.324 N 
ATOM     27  C   UNL     1      -6.554   1.642   4.462  1.00  0.00     0.056 A 
ATOM     28  C   UNL     1      -4.814   0.765   5.889  1.00  0.00     0.019 A 
ATOM     29  H   UNL     1      -8.063   2.606   3.424  1.00  0.00     0.170 HD
ATOM     30  C   UNL     1      -7.357   0.560   4.806  1.00  0.00     0.047 A 
ATOM     31  C   UNL     1      -5.617  -0.314   6.208  1.00  0.00     0.022 A 
ATOM     32  C   UNL     1      -6.888  -0.411   5.669  1.00  0.00     0.043 A 
ATOM     33  Cl  UNL     1      -7.899  -1.762   6.080  1.00  0.00    -0.084 Cl
ENDBRANCH  20  21
ENDBRANCH   2  20
TORSDOF 6
