REMARK SMILES CSCC[C@H](NS(=O)(=O)c1cc(C)ccc1C)C(=O)NCc1ccccc1C[NH+]1CCCC1
REMARK SMILES IDX 18 1 19 2 20 3 5 5 6 6 7 8 8 9 9 10 10 11 13 12 12 13 11 14
REMARK SMILES IDX 14 15 15 16 16 17 17 18 4 19 3 20 2 21 1 22 21 23 22 24
REMARK SMILES IDX 27 25 23 26 26 27 24 28 25 29 28 30 29 31 33 32 30 33 32 35
REMARK SMILES IDX 31 36
REMARK H PARENT 20 4 6 7 29 34
REMARK Flexibility Score: inf
ROOT
ATOM      1  C   UNL     1      -0.487   1.190   3.751  1.00  0.00     0.238 C 
ATOM      2  O   UNL     1      -0.642   0.396   4.654  1.00  0.00    -0.273 OA
ATOM      3  N   UNL     1      -0.586   2.513   3.991  1.00  0.00    -0.351 N 
ATOM      4  H   UNL     1      -0.454   3.187   3.224  1.00  0.00     0.163 HD
ENDROOT
BRANCH   1   5
ATOM      5  C   UNL     1      -0.182   0.699   2.359  1.00  0.00     0.159 C 
BRANCH   5   6
ATOM      6  N   UNL     1      -0.127  -0.765   2.360  1.00  0.00    -0.199 NA
ATOM      7  H   UNL     1      -0.947  -1.312   2.659  1.00  0.00     0.142 HD
BRANCH   6   8
ATOM      8  S   UNL     1       1.255  -1.542   1.880  1.00  0.00     0.241 S 
ATOM      9  O   UNL     1       1.018  -2.933   2.047  1.00  0.00    -0.207 OA
ATOM     10  O   UNL     1       1.624  -0.978   0.629  1.00  0.00    -0.207 OA
BRANCH   8  11
ATOM     11  C   UNL     1       2.522  -1.105   3.023  1.00  0.00     0.085 A 
ATOM     12  C   UNL     1       5.792   0.782   3.035  1.00  0.00     0.044 C 
ATOM     13  C   UNL     1       4.605  -0.024   3.497  1.00  0.00    -0.050 A 
ATOM     14  C   UNL     1       3.611  -0.366   2.600  1.00  0.00     0.025 A 
ATOM     15  C   UNL     1       4.510  -0.419   4.818  1.00  0.00     0.004 A 
ATOM     16  C   UNL     1       3.421  -1.159   5.242  1.00  0.00     0.005 A 
ATOM     17  C   UNL     1       2.425  -1.497   4.345  1.00  0.00    -0.031 A 
ATOM     18  C   UNL     1       1.234  -2.297   4.809  1.00  0.00     0.046 C 
ENDBRANCH   8  11
ENDBRANCH   6   8
ENDBRANCH   5   6
BRANCH   5  19
ATOM     19  C   UNL     1      -1.279   1.167   1.401  1.00  0.00     0.041 C 
BRANCH  19  20
ATOM     20  C   UNL     1      -0.898   0.794  -0.033  1.00  0.00     0.071 C 
BRANCH  20  21
ATOM     21  S   UNL     1      -2.193   1.359  -1.170  1.00  0.00    -0.165 SA
ATOM     22  C   UNL     1      -1.597   0.847  -2.805  1.00  0.00     0.085 C 
ENDBRANCH  20  21
ENDBRANCH  19  20
ENDBRANCH   5  19
ENDBRANCH   1   5
BRANCH   3  23
ATOM     23  C   UNL     1      -0.882   2.991   5.344  1.00  0.00     0.152 C 
BRANCH  23  24
ATOM     24  C   UNL     1      -0.939   4.497   5.343  1.00  0.00    -0.020 A 
ATOM     25  C   UNL     1      -2.077   5.145   4.902  1.00  0.00     0.011 A 
ATOM     26  C   UNL     1       0.145   5.230   5.789  1.00  0.00     0.006 A 
ATOM     27  C   UNL     1      -2.130   6.527   4.902  1.00  0.00     0.010 A 
ATOM     28  C   UNL     1       0.095   6.611   5.784  1.00  0.00     0.000 A 
ATOM     29  C   UNL     1      -1.044   7.260   5.343  1.00  0.00     0.001 A 
BRANCH  25  30
ATOM     30  C   UNL     1      -3.261   4.346   4.422  1.00  0.00     0.299 C 
BRANCH  30  31
ATOM     31  N   UNL     1      -4.029   3.864   5.579  1.00  0.00    -0.331 N 
ATOM     32  C   UNL     1      -5.320   3.283   5.153  1.00  0.00     0.262 C 
ATOM     33  C   UNL     1      -4.370   4.983   6.494  1.00  0.00     0.262 C 
ATOM     34  H   UNL     1      -3.436   3.163   6.046  1.00  0.00     0.348 HD
ATOM     35  C   UNL     1      -6.345   3.603   6.257  1.00  0.00     0.067 C 
ATOM     36  C   UNL     1      -5.563   4.423   7.309  1.00  0.00     0.067 C 
ENDBRANCH  30  31
ENDBRANCH  25  30
ENDBRANCH  23  24
ENDBRANCH   3  23
TORSDOF 11
