REMARK SMILES Cc1ccc(-c2[nH]c3ccccc3c2[C@@H]2c3ccccc3C(=O)N2[C@H](C)C(=O)NCC[NH+]2CCCC2)cc1
REMARK SMILES IDX 25 1 26 2 24 3 15 4 16 5 22 6 21 7 17 8 23 9 20 10 18 11
REMARK SMILES IDX 19 12 14 13 6 14 7 15 8 16 13 18 9 19 12 20 10 21 11 22 5 23
REMARK SMILES IDX 1 24 2 25 38 26 3 27 37 28 4 29 27 30 28 31 29 32 30 34
REMARK SMILES IDX 31 35 32 36 36 37 33 38 35 40 34 41
REMARK H PARENT 7 17 29 33 32 39
REMARK Flexibility Score: inf
ROOT
ATOM      1  C   UNL     1       3.795   2.937   2.385  1.00  0.00     0.172 C 
ATOM      2  C   UNL     1       5.131   2.821   3.122  1.00  0.00     0.042 C 
ENDROOT
BRANCH   1   3
ATOM      3  N   UNL     1       4.030   2.900   0.940  1.00  0.00    -0.316 N 
ATOM      4  C   UNL     1       3.676   3.960  -0.011  1.00  0.00     0.151 C 
ATOM      5  C   UNL     1       4.111   3.472  -1.370  1.00  0.00    -0.008 A 
ATOM      6  C   UNL     1       4.606   1.889   0.266  1.00  0.00     0.255 C 
ATOM      7  C   UNL     1       4.673   2.207  -1.173  1.00  0.00     0.045 A 
ATOM      8  C   UNL     1       4.047   4.016  -2.632  1.00  0.00     0.007 A 
ATOM      9  O   UNL     1       5.012   0.861   0.770  1.00  0.00    -0.269 OA
ATOM     10  C   UNL     1       5.170   1.500  -2.270  1.00  0.00     0.014 A 
ATOM     11  C   UNL     1       4.542   3.311  -3.716  1.00  0.00     0.000 A 
ATOM     12  C   UNL     1       5.101   2.058  -3.534  1.00  0.00     0.001 A 
BRANCH   4  13
ATOM     13  C   UNL     1       2.188   4.193   0.004  1.00  0.00     0.013 A 
ATOM     14  C   UNL     1       1.559   5.395   0.016  1.00  0.00     0.052 A 
ATOM     15  N   UNL     1       0.197   5.202   0.028  1.00  0.00    -0.354 N 
ATOM     16  C   UNL     1      -0.084   3.853   0.024  1.00  0.00     0.046 A 
ATOM     17  H   UNL     1      -0.508   5.953   0.039  1.00  0.00     0.167 HD
ATOM     18  C   UNL     1       1.146   3.167   0.008  1.00  0.00     0.006 A 
ATOM     19  C   UNL     1      -1.269   3.125   0.031  1.00  0.00     0.027 A 
ATOM     20  C   UNL     1       1.164   1.769   0.000  1.00  0.00     0.011 A 
ATOM     21  C   UNL     1      -1.227   1.748   0.017  1.00  0.00     0.002 A 
ATOM     22  C   UNL     1      -0.013   1.076   0.008  1.00  0.00     0.001 A 
BRANCH  14  23
ATOM     23  C   UNL     1       2.234   6.710   0.017  1.00  0.00    -0.002 A 
ATOM     24  C   UNL     1       4.186  10.515   0.019  1.00  0.00     0.044 C 
ATOM     25  C   UNL     1       3.498   9.174   0.018  1.00  0.00    -0.051 A 
ATOM     26  C   UNL     1       3.930   8.179  -0.840  1.00  0.00     0.004 A 
ATOM     27  C   UNL     1       2.436   8.944   0.875  1.00  0.00     0.004 A 
ATOM     28  C   UNL     1       3.309   6.947  -0.841  1.00  0.00     0.010 A 
ATOM     29  C   UNL     1       1.802   7.719   0.879  1.00  0.00     0.010 A 
ENDBRANCH  14  23
ENDBRANCH   4  13
ENDBRANCH   1   3
BRANCH   1  30
ATOM     30  C   UNL     1       2.903   1.788   2.779  1.00  0.00     0.242 C 
ATOM     31  O   UNL     1       2.503   1.014   1.935  1.00  0.00    -0.273 OA
ATOM     32  N   UNL     1       2.550   1.620   4.069  1.00  0.00    -0.349 N 
ATOM     33  H   UNL     1       2.890   2.277   4.785  1.00  0.00     0.163 HD
BRANCH  32  34
ATOM     34  C   UNL     1       1.683   0.503   4.452  1.00  0.00     0.177 C 
BRANCH  34  35
ATOM     35  C   UNL     1       1.437   0.542   5.961  1.00  0.00     0.283 C 
BRANCH  35  36
ATOM     36  N   UNL     1       0.567  -0.578   6.345  1.00  0.00    -0.333 N 
ATOM     37  C   UNL     1       0.500  -0.717   7.816  1.00  0.00     0.262 C 
ATOM     38  C   UNL     1       1.106  -1.867   5.841  1.00  0.00     0.262 C 
ATOM     39  H   UNL     1      -0.359  -0.375   5.944  1.00  0.00     0.348 HD
ATOM     40  C   UNL     1       0.378  -2.221   8.122  1.00  0.00     0.067 C 
ATOM     41  C   UNL     1       0.412  -2.918   6.743  1.00  0.00     0.067 C 
ENDBRANCH  35  36
ENDBRANCH  34  35
ENDBRANCH  32  34
ENDBRANCH   1  30
TORSDOF 7
