REMARK SMILES Nc1cccc(CN2C(=O)N(Cc3ccc4[nH]nc(N)c4c3)[C@H](CCc3ccccc3)[C@@H](O)[C@H]2Cc2ccccc2)c1
REMARK SMILES IDX 23 1 32 2 34 3 8 4 9 5 10 6 11 7 24 8 25 9 26 10 29 11 30 12
REMARK SMILES IDX 28 13 31 14 27 15 12 16 13 17 22 18 14 19 21 20 15 21 16 22
REMARK SMILES IDX 19 23 17 24 18 25 20 27 33 30 35 32 36 33 41 34 37 35 40 36
REMARK SMILES IDX 38 37 39 38 7 39 6 40 42 41 5 42 2 43 4 44 3 45 1 46
REMARK H PARENT 17 26 20 28 20 29 33 31 1 47 1 48
REMARK Flexibility Score: inf
ROOT
ATOM      1  C   UNL     1       0.349   7.541  -0.908  1.00  0.00     0.118 C 
ATOM      2  C   UNL     1      -0.078   8.051  -2.288  1.00  0.00     0.160 C 
ATOM      3  C   UNL     1       1.009   7.681  -3.303  1.00  0.00     0.122 C 
ATOM      4  N   UNL     1       2.294   8.215  -2.848  1.00  0.00    -0.314 N 
ATOM      5  C   UNL     1       2.557   8.381  -1.543  1.00  0.00     0.321 C 
ATOM      6  O   UNL     1       3.644   8.819  -1.218  1.00  0.00    -0.248 OA
ATOM      7  N   UNL     1       1.669   8.083  -0.581  1.00  0.00    -0.315 N 
ENDROOT
BRANCH   1   8
ATOM      8  C   UNL     1       0.414   6.012  -0.926  1.00  0.00     0.033 C 
BRANCH   8   9
ATOM      9  C   UNL     1       0.698   5.497   0.487  1.00  0.00     0.038 C 
BRANCH   9  10
ATOM     10  C   UNL     1       0.644   3.991   0.492  1.00  0.00    -0.048 A 
ATOM     11  C   UNL     1       0.546   1.228   0.503  1.00  0.00     0.000 A 
ATOM     12  C   UNL     1       1.740   1.876   0.251  1.00  0.00     0.000 A 
ATOM     13  C   UNL     1      -0.601   1.962   0.745  1.00  0.00     0.000 A 
ATOM     14  C   UNL     1       1.790   3.258   0.245  1.00  0.00     0.004 A 
ATOM     15  C   UNL     1      -0.550   3.343   0.745  1.00  0.00     0.004 A 
ENDBRANCH   9  10
ENDBRANCH   8   9
ENDBRANCH   1   8
BRANCH   7  16
ATOM     16  C   UNL     1       2.026   8.304   0.822  1.00  0.00     0.157 C 
BRANCH  16  17
ATOM     17  C   UNL     1       1.536   9.661   1.258  1.00  0.00    -0.028 A 
ATOM     18  C   UNL     1       0.327   9.774   1.881  1.00  0.00     0.019 A 
ATOM     19  C   UNL     1       2.321  10.783   1.026  1.00  0.00     0.008 A 
ATOM     20  C   UNL     1      -0.128  11.033   2.285  1.00  0.00     0.044 A 
ATOM     21  C   UNL     1       1.896  12.024   1.407  1.00  0.00     0.029 A 
ATOM     22  C   UNL     1       0.666  12.171   2.044  1.00  0.00     0.067 A 
ATOM     23  C   UNL     1      -1.336  11.511   2.958  1.00  0.00     0.153 A 
ATOM     24  N   UNL     1      -0.023  13.247   2.540  1.00  0.00    -0.276 N 
ATOM     25  N   UNL     1      -1.233  12.807   3.086  1.00  0.00    -0.157 NA
ATOM     26  H   UNL     1       0.299  14.225   2.514  1.00  0.00     0.190 HD
BRANCH  23  27
ATOM     27  N   UNL     1      -2.408  10.723   3.387  1.00  0.00    -0.382 N 
ATOM     28  H   UNL     1      -2.316   9.713   3.201  1.00  0.00     0.158 HD
ATOM     29  H   UNL     1      -3.239  11.107   3.858  1.00  0.00     0.158 HD
ENDBRANCH  23  27
ENDBRANCH  16  17
ENDBRANCH   7  16
BRANCH   2  30
ATOM     30  O   UNL     1      -0.233   9.471  -2.248  1.00  0.00    -0.389 OA
ATOM     31  H   UNL     1       0.628   9.890  -1.994  1.00  0.00     0.211 HD
ENDBRANCH   2  30
BRANCH   3  32
ATOM     32  C   UNL     1       0.661   8.280  -4.667  1.00  0.00     0.063 C 
BRANCH  32  33
ATOM     33  C   UNL     1      -0.602   7.644  -5.188  1.00  0.00    -0.046 A 
ATOM     34  C   UNL     1      -1.820   8.270  -4.997  1.00  0.00     0.004 A 
ATOM     35  C   UNL     1      -0.543   6.437  -5.860  1.00  0.00     0.004 A 
ATOM     36  C   UNL     1      -2.979   7.686  -5.475  1.00  0.00     0.000 A 
ATOM     37  C   UNL     1      -1.702   5.852  -6.333  1.00  0.00     0.000 A 
ATOM     38  C   UNL     1      -2.920   6.477  -6.143  1.00  0.00     0.000 A 
ENDBRANCH  32  33
ENDBRANCH   3  32
BRANCH   4  39
ATOM     39  C   UNL     1       3.312   8.576  -3.837  1.00  0.00     0.157 C 
BRANCH  39  40
ATOM     40  C   UNL     1       3.226  10.052  -4.131  1.00  0.00    -0.026 A 
ATOM     41  C   UNL     1       2.514  10.496  -5.227  1.00  0.00     0.031 A 
ATOM     42  C   UNL     1       3.866  10.959  -3.306  1.00  0.00     0.006 A 
ATOM     43  C   UNL     1       2.431  11.857  -5.495  1.00  0.00     0.032 A 
ATOM     44  C   UNL     1       3.790  12.313  -3.573  1.00  0.00     0.002 A 
ATOM     45  C   UNL     1       3.074  12.765  -4.665  1.00  0.00     0.025 A 
BRANCH  43  46
ATOM     46  N   UNL     1       1.706  12.310  -6.600  1.00  0.00    -0.399 N 
ATOM     47  H   UNL     1       1.649  13.319  -6.798  1.00  0.00     0.156 HD
ATOM     48  H   UNL     1       1.229  11.636  -7.215  1.00  0.00     0.156 HD
ENDBRANCH  43  46
ENDBRANCH  39  40
ENDBRANCH   4  39
TORSDOF 12
