REMARK SMILES Cc1c(C(=O)N[C@H](Cc2ccccc2)c2nc3ccccc3[nH]2)sc2nc3n(c(=O)c12)CCCCC3
REMARK SMILES IDX 1 1 2 2 31 3 25 4 26 5 27 6 28 7 29 8 30 9 24 10 3 11 4 12
REMARK SMILES IDX 5 13 6 14 7 16 8 17 9 18 14 19 10 20 13 21 11 22 12 23 15 24
REMARK SMILES IDX 16 25 23 26 17 27 22 28 18 30 21 31 19 32 20 33 32 34 33 35
REMARK SMILES IDX 36 37 35 38 34 39
REMARK H PARENT 6 15 23 29
REMARK Flexibility Score: 80.00
ROOT
ATOM      1  C   UNL     1       4.692  -0.821   4.921  1.00  0.00     0.047 C 
ATOM      2  C   UNL     1       4.926   0.660   4.767  1.00  0.00    -0.012 A 
ATOM      3  C   UNL     1       5.381   1.414   5.851  1.00  0.00     0.080 A 
ATOM      4  C   UNL     1       5.569   2.793   5.606  1.00  0.00     0.131 A 
ATOM      5  N   UNL     1       5.993   3.621   6.553  1.00  0.00    -0.224 NA
ATOM      6  C   UNL     1       6.252   3.207   7.761  1.00  0.00     0.113 A 
ATOM      7  N   UNL     1       6.111   1.897   8.115  1.00  0.00    -0.296 N 
ATOM      8  C   UNL     1       5.698   0.974   7.229  1.00  0.00     0.262 A 
ATOM      9  O   UNL     1       5.586  -0.195   7.552  1.00  0.00    -0.269 OA
ATOM     10  S   UNL     1       5.118   2.969   3.898  1.00  0.00    -0.110 S 
ATOM     11  C   UNL     1       4.693   1.267   3.568  1.00  0.00     0.098 A 
ENDROOT
BRANCH  11  12
ATOM     12  C   UNL     1       4.218   0.670   2.316  1.00  0.00     0.262 C 
ATOM     13  O   UNL     1       3.977  -0.522   2.264  1.00  0.00    -0.268 OA
ATOM     14  N   UNL     1       4.046   1.440   1.224  1.00  0.00    -0.341 N 
ATOM     15  H   UNL     1       4.250   2.449   1.268  1.00  0.00     0.164 HD
BRANCH  14  16
ATOM     16  C   UNL     1       3.571   0.843  -0.027  1.00  0.00     0.153 C 
BRANCH  16  17
ATOM     17  C   UNL     1       4.035   1.697  -1.209  1.00  0.00     0.068 C 
BRANCH  17  18
ATOM     18  C   UNL     1       5.539   1.660  -1.295  1.00  0.00    -0.046 A 
ATOM     19  C   UNL     1       6.165   0.687  -2.052  1.00  0.00     0.004 A 
ATOM     20  C   UNL     1       6.294   2.603  -0.623  1.00  0.00     0.004 A 
ATOM     21  C   UNL     1       7.544   0.653  -2.132  1.00  0.00     0.000 A 
ATOM     22  C   UNL     1       7.674   2.567  -0.698  1.00  0.00     0.000 A 
ATOM     23  C   UNL     1       8.299   1.593  -1.455  1.00  0.00     0.000 A 
ENDBRANCH  17  18
ENDBRANCH  16  17
BRANCH  16  24
ATOM     24  C   UNL     1       2.066   0.780  -0.013  1.00  0.00     0.130 A 
ATOM     25  N   UNL     1       1.276   1.814  -0.000  1.00  0.00    -0.231 NA
ATOM     26  N   UNL     1       1.334  -0.367  -0.013  1.00  0.00    -0.340 N 
ATOM     27  C   UNL     1      -0.017   1.401   0.010  1.00  0.00     0.089 A 
ATOM     28  C   UNL     1       0.002  -0.004   0.002  1.00  0.00     0.066 A 
ATOM     29  H   UNL     1       1.705  -1.328  -0.021  1.00  0.00     0.168 HD
ATOM     30  C   UNL     1      -1.243   2.072   0.030  1.00  0.00     0.030 A 
ATOM     31  C   UNL     1      -1.193  -0.711   0.010  1.00  0.00     0.028 A 
ATOM     32  C   UNL     1      -2.408   1.359   0.033  1.00  0.00     0.002 A 
ATOM     33  C   UNL     1      -2.390  -0.028   0.025  1.00  0.00     0.002 A 
ENDBRANCH  16  24
ENDBRANCH  14  16
ENDBRANCH  11  12
BRANCH   7  34
ATOM     34  C   UNL     1       6.425   1.513   9.497  1.00  0.00     0.127 C 
BRANCH  34  35
ATOM     35  C   UNL     1       5.309   2.001  10.418  1.00  0.00     0.022 CG0
ATOM     36  G   UNL     1       5.590   3.406  10.924  1.00  0.00     0.000 G0
ENDBRANCH  34  35
ENDBRANCH   7  34
BRANCH   6  37
ATOM     37  C   UNL     1       6.719   4.181   8.818  1.00  0.00     0.075 C 
BRANCH  37  38
ATOM     38  C   UNL     1       5.580   4.431   9.805  1.00  0.00     0.008 C 
BRANCH  38  39
ATOM     39  C   UNL     1       5.590   3.406  10.924  1.00  0.00     0.002 CG0
ATOM     40  G   UNL     1       5.309   2.001  10.418  1.00  0.00     0.000 G0
ENDBRANCH  38  39
ENDBRANCH  37  38
ENDBRANCH   6  37
TORSDOF 5
