REMARK SMILES O=C(NCC1(c2ccccc2)CCCC1)[C@@H]1CC12CC[NH+](Cc1c[nH]nc1-c1ccc(F)cc1)CC2
REMARK SMILES IDX 16 1 17 2 18 3 19 4 20 5 35 6 36 7 21 8 2 10 3 11 1 13 4 14
REMARK SMILES IDX 5 15 15 16 12 17 14 18 13 19 6 20 9 21 10 22 8 23 11 24 7 25
REMARK SMILES IDX 22 26 23 27 27 28 24 29 26 30 25 31 28 33 34 34 29 35 33 36
REMARK SMILES IDX 30 37 31 38 32 39
REMARK H PARENT 21 9 3 12 25 32
REMARK Flexibility Score: inf
ROOT
ATOM      1  C   UNL     1      -0.132  -2.592  -2.100  1.00  0.00     0.085 C 
ATOM      2  C   UNL     1       0.100  -4.078  -1.821  1.00  0.00     0.022 C 
ATOM      3  C   UNL     1      -0.213  -3.607  -3.239  1.00  0.00    -0.007 C 
ATOM      4  C   UNL     1       0.924  -3.621  -4.266  1.00  0.00     0.069 C 
ATOM      5  C   UNL     1       0.524  -2.737  -5.452  1.00  0.00     0.263 C 
ATOM      6  C   UNL     1      -1.849  -3.027  -5.024  1.00  0.00     0.263 C 
ATOM      7  C   UNL     1      -1.598  -3.929  -3.811  1.00  0.00     0.069 C 
ATOM      8  N   UNL     1      -0.758  -3.230  -6.003  1.00  0.00    -0.331 N 
ATOM      9  H   UNL     1      -0.670  -4.237  -6.197  1.00  0.00     0.348 HD
ENDROOT
BRANCH   1  10
ATOM     10  C   UNL     1       1.069  -1.681  -2.064  1.00  0.00     0.223 C 
ATOM     11  N   UNL     1       0.910  -0.351  -2.215  1.00  0.00    -0.355 N 
ATOM     12  H   UNL     1      -0.031   0.043  -2.354  1.00  0.00     0.163 HD
ATOM     13  O   UNL     1       2.177  -2.145  -1.900  1.00  0.00    -0.275 OA
BRANCH  11  14
ATOM     14  C   UNL     1       2.077   0.534  -2.180  1.00  0.00     0.127 C 
BRANCH  14  15
ATOM     15  C   UNL     1       1.614   1.991  -2.228  1.00  0.00     0.013 C 
ATOM     16  C   UNL     1       2.826   2.934  -2.127  1.00  0.00     0.013 C 
ATOM     17  C   UNL     1       0.712   2.301  -1.015  1.00  0.00     0.013 C 
ATOM     18  C   UNL     1       2.619   3.783  -0.856  1.00  0.00     0.001 C 
ATOM     19  C   UNL     1       1.676   2.926   0.024  1.00  0.00     0.001 C 
BRANCH  15  20
ATOM     20  C   UNL     1       0.863   2.252  -3.509  1.00  0.00    -0.040 A 
ATOM     21  C   UNL     1      -0.515   2.728  -5.858  1.00  0.00     0.000 A 
ATOM     22  C   UNL     1       0.114   1.514  -5.660  1.00  0.00     0.000 A 
ATOM     23  C   UNL     1      -0.459   3.703  -4.879  1.00  0.00     0.000 A 
ATOM     24  C   UNL     1       0.803   1.275  -4.486  1.00  0.00     0.004 A 
ATOM     25  C   UNL     1       0.234   3.467  -3.707  1.00  0.00     0.004 A 
ENDBRANCH  15  20
ENDBRANCH  14  15
ENDBRANCH  11  14
ENDBRANCH   1  10
BRANCH   8  26
ATOM     26  C   UNL     1      -1.071  -2.520  -7.260  1.00  0.00     0.303 C 
BRANCH  26  27
ATOM     27  C   UNL     1       0.154  -2.506  -8.136  1.00  0.00     0.052 A 
ATOM     28  C   UNL     1       0.621  -3.573  -8.928  1.00  0.00     0.101 A 
ATOM     29  C   UNL     1       0.998  -1.464  -8.307  1.00  0.00     0.115 A 
ATOM     30  N   UNL     1       1.713  -3.174  -9.544  1.00  0.00    -0.175 NA
ATOM     31  N   UNL     1       1.968  -1.850  -9.163  1.00  0.00    -0.285 N 
ATOM     32  H   UNL     1       2.759  -1.271  -9.481  1.00  0.00     0.189 HD
BRANCH  28  33
ATOM     33  C   UNL     1      -0.008  -4.912  -9.046  1.00  0.00     0.003 A 
ATOM     34  C   UNL     1       0.023  -5.594 -10.261  1.00  0.00     0.013 A 
ATOM     35  C   UNL     1      -0.627  -5.494  -7.941  1.00  0.00     0.013 A 
ATOM     36  C   UNL     1      -0.563  -6.838 -10.367  1.00  0.00     0.040 A 
ATOM     37  C   UNL     1      -1.216  -6.736  -8.058  1.00  0.00     0.040 A 
ATOM     38  C   UNL     1      -1.183  -7.410  -9.268  1.00  0.00     0.123 A 
ATOM     39  F   UNL     1      -1.755  -8.629  -9.376  1.00  0.00    -0.207 F 
ENDBRANCH  28  33
ENDBRANCH  26  27
ENDBRANCH   8  26
TORSDOF 7
