REMARK SMILES Cc1[nH]c(NC(=O)CSc2nnc3c4ccccc4n(C)c3n2)c(C#N)c1C
REMARK SMILES IDX 5 1 6 2 7 3 4 5 28 6 27 7 24 8 2 9 3 10 1 11 25 13 26 14
REMARK SMILES IDX 8 15 9 16 10 17 11 18 23 19 12 20 22 21 13 22 20 23 14 24
REMARK SMILES IDX 19 25 21 26 15 27 18 28 16 29 17 30
REMARK H PARENT 5 4 3 12
REMARK Flexibility Score: inf
ROOT
ATOM      1  N   UNL     1      -0.444  12.685   0.067  1.00  0.00    -0.310 N 
ATOM      2  C   UNL     1      -1.371  11.707   0.071  1.00  0.00     0.235 C 
ATOM      3  O   UNL     1      -2.551  11.989   0.084  1.00  0.00    -0.274 OA
ATOM      4  H   UNL     1       0.558  12.445   0.056  1.00  0.00     0.171 HD
ENDROOT
BRANCH   1   5
ATOM      5  C   UNL     1      -0.839  14.015   0.076  1.00  0.00     0.128 A 
ATOM      6  C   UNL     1      -0.437  17.739   0.090  1.00  0.00     0.048 C 
ATOM      7  C   UNL     1      -0.871  16.295   0.087  1.00  0.00    -0.011 A 
ATOM      8  C   UNL     1       0.004  15.117   0.078  1.00  0.00     0.097 A 
ATOM      9  C   UNL     1      -2.134  15.838   0.098  1.00  0.00     0.018 A 
ATOM     10  N   UNL     1      -2.119  14.468   0.091  1.00  0.00    -0.344 N 
ATOM     11  C   UNL     1      -3.372  16.696   0.114  1.00  0.00     0.064 C 
ATOM     12  H   UNL     1      -2.957  13.870   0.096  1.00  0.00     0.168 HD
BRANCH   8  13
ATOM     13  C   UNL     1       1.436  15.107   0.071  1.00  0.00     0.103 C 
ATOM     14  N   UNL     1       2.572  15.099   0.065  1.00  0.00    -0.192 NA
ENDBRANCH   8  13
ENDBRANCH   1   5
BRANCH   2  15
ATOM     15  C   UNL     1      -0.942  10.262   0.061  1.00  0.00     0.178 C 
BRANCH  15  16
ATOM     16  S   UNL     1      -2.406   9.198   0.071  1.00  0.00    -0.074 SA
BRANCH  16  17
ATOM     17  C   UNL     1      -1.634   7.614   0.056  1.00  0.00     0.211 A 
ATOM     18  N   UNL     1      -0.307   7.537   0.043  1.00  0.00    -0.122 NA
ATOM     19  N   UNL     1      -2.388   6.523   0.059  1.00  0.00    -0.201 NA
ATOM     20  N   UNL     1       0.302   6.401   0.032  1.00  0.00    -0.144 NA
ATOM     21  C   UNL     1      -1.803   5.329   0.047  1.00  0.00     0.164 A 
ATOM     22  C   UNL     1      -0.394   5.273   0.033  1.00  0.00     0.138 A 
ATOM     23  N   UNL     1      -2.289   4.045   0.045  1.00  0.00    -0.327 N 
ATOM     24  C   UNL     1      -0.036   3.845   0.023  1.00  0.00     0.030 A 
ATOM     25  C   UNL     1      -1.246   3.134   0.031  1.00  0.00     0.052 A 
ATOM     26  C   UNL     1      -3.710   3.689   0.057  1.00  0.00     0.152 C 
ATOM     27  C   UNL     1       1.176   3.158   0.007  1.00  0.00     0.013 A 
ATOM     28  C   UNL     1      -1.219   1.743   0.017  1.00  0.00     0.027 A 
ATOM     29  C   UNL     1       1.182   1.780   0.000  1.00  0.00     0.001 A 
ATOM     30  C   UNL     1      -0.013   1.076   0.008  1.00  0.00     0.002 A 
ENDBRANCH  16  17
ENDBRANCH  15  16
ENDBRANCH   2  15
TORSDOF 5
