REMARK SMILES COc1ccc(CCN2C(=O)c3[nH]nc(-c4cc(C)cc(C)c4O)c3[C@H]2c2ccc(OC)c(OC)c2)cc1
REMARK SMILES IDX 8 1 9 2 15 3 14 4 25 5 13 6 26 7 12 8 10 10 11 11 16 12
REMARK SMILES IDX 19 13 18 14 17 15 20 16 21 17 23 18 22 19 24 20 27 22 36 23
REMARK SMILES IDX 28 24 33 25 29 26 30 27 34 28 35 29 31 30 32 31 7 32 6 33
REMARK SMILES IDX 37 34 5 35 38 36 4 37 3 38 2 39 1 40
REMARK H PARENT 13 9 24 21
REMARK Flexibility Score: inf
ROOT
ATOM      1  C   UNL     1       1.404  -2.579   5.678  1.00  0.00     0.125 C 
ENDROOT
BRANCH   1   2
ATOM      2  N   UNL     1       2.140  -1.360   6.022  1.00  0.00    -0.326 N 
ATOM      3  C   UNL     1       3.132   2.197   6.798  1.00  0.00     0.102 A 
ATOM      4  N   UNL     1       4.425   2.143   7.048  1.00  0.00    -0.174 NA
ATOM      5  C   UNL     1       2.708   0.897   6.502  1.00  0.00     0.038 A 
ATOM      6  N   UNL     1       4.860   0.938   6.939  1.00  0.00    -0.272 N 
ATOM      7  C   UNL     1       1.569  -0.011   6.126  1.00  0.00     0.151 C 
ATOM      8  C   UNL     1       3.834   0.103   6.598  1.00  0.00     0.129 A 
ATOM      9  H   UNL     1       5.837   0.646   7.087  1.00  0.00     0.190 HD
ATOM     10  C   UNL     1       3.456  -1.282   6.297  1.00  0.00     0.273 C 
ATOM     11  O   UNL     1       4.222  -2.227   6.297  1.00  0.00    -0.267 OA
BRANCH   3  12
ATOM     12  C   UNL     1       2.281   3.413   6.825  1.00  0.00     0.045 A 
ATOM     13  C   UNL     1      -1.375   4.324   6.506  1.00  0.00     0.044 C 
ATOM     14  C   UNL     1       0.116   4.441   6.685  1.00  0.00    -0.050 A 
ATOM     15  C   UNL     1       0.903   3.307   6.659  1.00  0.00     0.017 A 
ATOM     16  C   UNL     1       0.693   5.684   6.876  1.00  0.00     0.010 A 
ATOM     17  C   UNL     1       2.060   5.801   7.042  1.00  0.00    -0.008 A 
ATOM     18  C   UNL     1       2.860   4.670   7.023  1.00  0.00     0.127 A 
ATOM     19  C   UNL     1       2.680   7.159   7.250  1.00  0.00     0.048 C 
BRANCH  18  20
ATOM     20  O   UNL     1       4.204   4.783   7.192  1.00  0.00    -0.507 OA
ATOM     21  H   UNL     1       4.313   5.252   8.057  1.00  0.00     0.293 HD
ENDBRANCH  18  20
ENDBRANCH   3  12
BRANCH   7  22
ATOM     22  C   UNL     1       0.986   0.409   4.801  1.00  0.00    -0.017 A 
ATOM     23  C   UNL     1       1.724   0.255   3.643  1.00  0.00     0.056 A 
ATOM     24  C   UNL     1      -0.286   0.948   4.748  1.00  0.00     0.010 A 
ATOM     25  C   UNL     1       1.190   0.641   2.424  1.00  0.00     0.161 A 
ATOM     26  C   UNL     1      -0.824   1.339   3.536  1.00  0.00     0.051 A 
ATOM     27  C   UNL     1      -0.091   1.183   2.370  1.00  0.00     0.160 A 
BRANCH  25  28
ATOM     28  O   UNL     1       1.915   0.490   1.284  1.00  0.00    -0.493 OA
ATOM     29  C   UNL     1       3.264   0.043   1.427  1.00  0.00     0.278 C 
ENDBRANCH  25  28
BRANCH  27  30
ATOM     30  O   UNL     1      -0.620   1.563   1.176  1.00  0.00    -0.493 OA
ATOM     31  C   UNL     1      -1.940   2.111   1.196  1.00  0.00     0.278 C 
ENDBRANCH  27  30
ENDBRANCH   7  22
ENDBRANCH   1   2
BRANCH   1  32
ATOM     32  C   UNL     1       1.428  -2.777   4.161  1.00  0.00     0.057 C 
BRANCH  32  33
ATOM     33  C   UNL     1       0.671  -4.032   3.806  1.00  0.00    -0.046 A 
ATOM     34  C   UNL     1      -0.686  -3.969   3.545  1.00  0.00     0.007 A 
ATOM     35  C   UNL     1       1.335  -5.242   3.737  1.00  0.00     0.007 A 
ATOM     36  C   UNL     1      -1.382  -5.117   3.220  1.00  0.00     0.046 A 
ATOM     37  C   UNL     1       0.642  -6.394   3.418  1.00  0.00     0.046 A 
ATOM     38  C   UNL     1      -0.719  -6.333   3.155  1.00  0.00     0.118 A 
BRANCH  38  39
ATOM     39  O   UNL     1      -1.401  -7.464   2.835  1.00  0.00    -0.497 OA
ATOM     40  C   UNL     1      -0.654  -8.681   2.788  1.00  0.00     0.278 C 
ENDBRANCH  38  39
ENDBRANCH  32  33
ENDBRANCH   1  32
TORSDOF 9
