REMARK SMILES COc1cccc(/C=N/Nc2nnc(SCCC(=O)NC(c3ccccc3)c3ccccc3)[nH]2)c1
REMARK SMILES IDX 15 1 14 2 11 3 12 4 34 5 13 6 10 8 9 10 8 11 7 12 3 13 35 14
REMARK SMILES IDX 4 15 5 16 6 17 2 18 1 19 16 20 17 21 18 22 19 23 20 24 21 26
REMARK SMILES IDX 22 27 27 28 23 29 26 30 24 31 25 32 28 33 33 34 29 35 32 36
REMARK SMILES IDX 30 37 31 38
REMARK H PARENT 34 7 10 9 20 25
REMARK Flexibility Score: inf
ROOT
ATOM      1  S   UNL     1       2.638  -3.131  -0.040  1.00  0.00    -0.086 SA
ENDROOT
BRANCH   1   2
ATOM      2  C   UNL     1       2.058  -4.795  -0.043  1.00  0.00     0.190 A 
ATOM      3  C   UNL     1       0.731  -6.511  -0.039  1.00  0.00     0.243 A 
ATOM      4  N   UNL     1       1.948  -6.999  -0.053  1.00  0.00    -0.109 NA
ATOM      5  N   UNL     1       0.797  -5.175  -0.028  1.00  0.00    -0.301 N 
ATOM      6  N   UNL     1       2.828  -5.904  -0.057  1.00  0.00    -0.121 NA
ATOM      7  H   UNL     1      -0.014  -4.541  -0.010  1.00  0.00     0.172 HD
BRANCH   3   8
ATOM      8  N   UNL     1      -0.444  -7.264  -0.030  1.00  0.00    -0.245 N 
ATOM      9  H   UNL     1      -1.358  -6.791  -0.018  1.00  0.00     0.193 HD
BRANCH   8  10
ATOM     10  N   UNL     1      -0.378  -8.664  -0.039  1.00  0.00    -0.181 NA
ATOM     11  C   UNL     1      -1.471  -9.364  -0.031  1.00  0.00     0.141 C 
BRANCH  11  12
ATOM     12  C   UNL     1      -1.403 -10.837  -0.040  1.00  0.00    -0.002 A 
ATOM     13  C   UNL     1      -2.504 -12.976  -0.039  1.00  0.00     0.119 A 
ATOM     14  C   UNL     1      -2.577 -11.594  -0.026  1.00  0.00     0.056 A 
ATOM     15  C   UNL     1      -1.267 -13.607  -0.055  1.00  0.00     0.046 A 
ATOM     16  C   UNL     1      -0.103 -12.860  -0.064  1.00  0.00     0.004 A 
ATOM     17  C   UNL     1      -0.163 -11.482  -0.056  1.00  0.00     0.010 A 
BRANCH  13  18
ATOM     18  O   UNL     1      -3.644 -13.716  -0.029  1.00  0.00    -0.497 OA
ATOM     19  C   UNL     1      -3.495 -15.137  -0.037  1.00  0.00     0.278 C 
ENDBRANCH  13  18
ENDBRANCH  11  12
ENDBRANCH   8  10
ENDBRANCH   3   8
ENDBRANCH   1   2
BRANCH   1  20
ATOM     20  C   UNL     1       1.058  -2.248  -0.020  1.00  0.00     0.088 C 
BRANCH  20  21
ATOM     21  C   UNL     1       1.317  -0.740  -0.015  1.00  0.00     0.111 C 
BRANCH  21  22
ATOM     22  C   UNL     1       0.002  -0.004   0.002  1.00  0.00     0.221 C 
ATOM     23  O   UNL     1      -1.040  -0.625   0.009  1.00  0.00    -0.275 OA
ATOM     24  N   UNL     1      -0.016   1.344   0.009  1.00  0.00    -0.345 N 
ATOM     25  H   UNL     1       0.869   1.871   0.008  1.00  0.00     0.164 HD
BRANCH  24  26
ATOM     26  C   UNL     1      -1.295   2.059   0.019  1.00  0.00     0.143 C 
BRANCH  26  27
ATOM     27  C   UNL     1      -1.787   2.188   1.438  1.00  0.00    -0.021 A 
ATOM     28  C   UNL     1      -3.130   2.026   1.721  1.00  0.00     0.006 A 
ATOM     29  C   UNL     1      -0.894   2.464   2.457  1.00  0.00     0.006 A 
ATOM     30  C   UNL     1      -3.582   2.144   3.022  1.00  0.00     0.000 A 
ATOM     31  C   UNL     1      -1.346   2.587   3.757  1.00  0.00     0.000 A 
ATOM     32  C   UNL     1      -2.690   2.425   4.040  1.00  0.00     0.000 A 
ENDBRANCH  26  27
BRANCH  26  33
ATOM     33  C   UNL     1      -1.107   3.431  -0.575  1.00  0.00    -0.021 A 
ATOM     34  C   UNL     1      -2.073   3.960  -1.411  1.00  0.00     0.006 A 
ATOM     35  C   UNL     1       0.027   4.163  -0.279  1.00  0.00     0.006 A 
ATOM     36  C   UNL     1      -1.901   5.219  -1.955  1.00  0.00     0.000 A 
ATOM     37  C   UNL     1       0.201   5.420  -0.827  1.00  0.00     0.000 A 
ATOM     38  C   UNL     1      -0.764   5.949  -1.664  1.00  0.00     0.000 A 
ENDBRANCH  26  33
ENDBRANCH  24  26
ENDBRANCH  21  22
ENDBRANCH  20  21
ENDBRANCH   1  20
TORSDOF 11
