REMARK SMILES CC[C@@H](C)c1ccc(-n2c(S[C@@H](C(N)=O)c3ccc(F)cc3)nc3ccccc3c2=O)cc1
REMARK SMILES IDX 9 1 30 2 31 3 29 4 28 5 27 6 26 7 25 8 24 9 23 10 10 11 8 12
REMARK SMILES IDX 5 13 33 14 6 15 32 16 7 17 3 18 4 19 2 20 1 21 11 22 12 23
REMARK SMILES IDX 16 24 22 25 17 26 21 27 18 28 19 29 20 30 13 31 15 32 14 33
REMARK H PARENT 14 34 14 35
REMARK Flexibility Score: inf
ROOT
ATOM      1  N   UNL     1      -2.272   1.199   0.151  1.00  0.00    -0.255 N 
ATOM      2  C   UNL     1      -2.176  -0.148   0.063  1.00  0.00     0.266 A 
ATOM      3  O   UNL     1      -1.093  -0.701  -0.004  1.00  0.00    -0.268 OA
ATOM      4  C   UNL     1      -3.426  -0.919   0.055  1.00  0.00     0.066 A 
ATOM      5  C   UNL     1      -3.433  -2.311  -0.028  1.00  0.00     0.016 A 
ATOM      6  C   UNL     1      -4.626  -2.980  -0.037  1.00  0.00     0.001 A 
ATOM      7  C   UNL     1      -5.828  -2.288   0.036  1.00  0.00     0.002 A 
ATOM      8  C   UNL     1      -5.851  -0.924   0.119  1.00  0.00     0.029 A 
ATOM      9  C   UNL     1      -4.648  -0.212   0.130  1.00  0.00     0.079 A 
ATOM     10  N   UNL     1      -4.624   1.139   0.210  1.00  0.00    -0.223 NA
ATOM     11  C   UNL     1      -3.495   1.805   0.220  1.00  0.00     0.177 A 
ENDROOT
BRANCH   1  12
ATOM     12  C   UNL     1      -1.108   1.979   0.166  1.00  0.00     0.051 A 
ATOM     13  C   UNL     1       1.193   3.515   0.194  1.00  0.00    -0.045 A 
ATOM     14  C   UNL     1       0.352   3.552  -0.903  1.00  0.00     0.006 A 
ATOM     15  C   UNL     1       0.886   2.713   1.278  1.00  0.00     0.006 A 
ATOM     16  C   UNL     1      -0.799   2.788  -0.919  1.00  0.00     0.027 A 
ATOM     17  C   UNL     1      -0.264   1.948   1.268  1.00  0.00     0.027 A 
BRANCH  13  18
ATOM     18  C   UNL     1       2.448   4.350   0.207  1.00  0.00     0.016 C 
ATOM     19  C   UNL     1       2.078   5.828   0.074  1.00  0.00     0.013 C 
BRANCH  18  20
ATOM     20  C   UNL     1       3.345   3.941  -0.963  1.00  0.00     0.004 C 
ATOM     21  C   UNL     1       4.671   4.699  -0.877  1.00  0.00     0.004 C 
ENDBRANCH  18  20
ENDBRANCH  13  18
ENDBRANCH   1  12
BRANCH  11  22
ATOM     22  S   UNL     1      -3.558   3.563   0.327  1.00  0.00    -0.069 SA
BRANCH  22  23
ATOM     23  C   UNL     1      -5.350   3.811   0.389  1.00  0.00     0.173 C 
BRANCH  23  24
ATOM     24  C   UNL     1      -5.654   5.286   0.362  1.00  0.00    -0.025 A 
ATOM     25  C   UNL     1      -6.505   5.798  -0.600  1.00  0.00     0.008 A 
ATOM     26  C   UNL     1      -5.087   6.126   1.302  1.00  0.00     0.008 A 
ATOM     27  C   UNL     1      -6.785   7.151  -0.626  1.00  0.00     0.039 A 
ATOM     28  C   UNL     1      -5.361   7.480   1.274  1.00  0.00     0.039 A 
ATOM     29  C   UNL     1      -6.213   7.994   0.311  1.00  0.00     0.123 A 
ATOM     30  F   UNL     1      -6.487   9.317   0.287  1.00  0.00    -0.207 F 
ENDBRANCH  23  24
BRANCH  23  31
ATOM     31  C   UNL     1      -5.896   3.208   1.658  1.00  0.00     0.235 C 
ATOM     32  O   UNL     1      -7.019   2.750   1.677  1.00  0.00    -0.274 OA
ATOM     33  N   UNL     1      -5.138   3.180   2.771  1.00  0.00    -0.368 N 
ATOM     34  H   UNL     1      -4.184   3.569   2.755  1.00  0.00     0.159 HD
ATOM     35  H   UNL     1      -5.511   2.768   3.639  1.00  0.00     0.159 HD
ENDBRANCH  23  31
ENDBRANCH  22  23
ENDBRANCH  11  22
TORSDOF 7
