REMARK SMILES O=C(NCc1cccc(C[N@@H+]2CCc3ccccc3C2)c1)[C@H]1CCCN(Cc2nc(-c3cccs3)no2)C1
REMARK SMILES IDX 3 1 2 2 1 3 4 5 5 6 9 7 21 8 8 9 7 10 6 11 10 12 11 13 16 14
REMARK SMILES IDX 15 15 17 16 14 17 18 18 19 19 13 20 20 21 12 22 22 24 38 25
REMARK SMILES IDX 23 26 26 27 24 28 25 29 27 30 28 31 37 32 29 33 36 34 30 35
REMARK SMILES IDX 31 36 35 37 32 38 34 39 33 40
REMARK H PARENT 3 4 11 23
REMARK Flexibility Score: inf
ROOT
ATOM      1  N   UNL     1      -0.089   5.844  -1.346  1.00  0.00    -0.352 N 
ATOM      2  C   UNL     1      -0.109   7.170  -1.584  1.00  0.00     0.224 C 
ATOM      3  O   UNL     1      -0.112   7.953  -0.657  1.00  0.00    -0.275 OA
ATOM      4  H   UNL     1      -0.087   5.179  -2.133  1.00  0.00     0.163 HD
ENDROOT
BRANCH   1   5
ATOM      5  C   UNL     1      -0.070   5.347   0.032  1.00  0.00     0.151 C 
BRANCH   5   6
ATOM      6  C   UNL     1      -0.050   3.840   0.023  1.00  0.00    -0.028 A 
ATOM      7  C   UNL     1       1.175   1.783   0.000  1.00  0.00     0.007 A 
ATOM      8  C   UNL     1       1.157   3.165   0.008  1.00  0.00     0.015 A 
ATOM      9  C   UNL     1      -0.013   1.076   0.008  1.00  0.00     0.009 A 
ATOM     10  C   UNL     1      -1.219   1.750   0.017  1.00  0.00     0.001 A 
ATOM     11  C   UNL     1      -1.238   3.133   0.029  1.00  0.00     0.005 A 
BRANCH   7  12
ATOM     12  C   UNL     1       2.490   1.048  -0.016  1.00  0.00     0.299 C 
BRANCH  12  13
ATOM     13  N   UNL     1       2.905   0.816  -1.406  1.00  0.00    -0.327 N 
ATOM     14  C   UNL     1       4.666   1.445  -6.051  1.00  0.00     0.000 A 
ATOM     15  C   UNL     1       4.677   0.403  -5.145  1.00  0.00     0.004 A 
ATOM     16  C   UNL     1       4.182   2.683  -5.669  1.00  0.00     0.001 A 
ATOM     17  C   UNL     1       4.203   0.591  -3.856  1.00  0.00    -0.034 A 
ATOM     18  C   UNL     1       3.712   2.871  -4.385  1.00  0.00     0.010 A 
ATOM     19  C   UNL     1       3.723   1.825  -3.474  1.00  0.00     0.010 A 
ATOM     20  C   UNL     1       4.225  -0.578  -2.904  1.00  0.00     0.097 C 
ATOM     21  C   UNL     1       3.205   2.081  -2.083  1.00  0.00     0.299 C 
ATOM     22  C   UNL     1       4.068  -0.083  -1.466  1.00  0.00     0.267 C 
ATOM     23  H   UNL     1       2.119   0.364  -1.895  1.00  0.00     0.348 HD
ENDBRANCH  12  13
ENDBRANCH   7  12
ENDBRANCH   5   6
ENDBRANCH   1   5
BRANCH   2  24
ATOM     24  C   UNL     1      -0.129   7.681  -3.002  1.00  0.00     0.092 C 
ATOM     25  C   UNL     1      -0.154   9.211  -2.993  1.00  0.00     0.098 C 
ATOM     26  C   UNL     1      -1.378   7.159  -3.716  1.00  0.00     0.016 C 
ATOM     27  N   UNL     1      -0.195   9.709  -4.374  1.00  0.00    -0.294 NA
ATOM     28  C   UNL     1      -1.421   7.730  -5.136  1.00  0.00     0.016 C 
ATOM     29  C   UNL     1      -1.409   9.259  -5.066  1.00  0.00     0.085 C 
BRANCH  27  30
ATOM     30  C   UNL     1      -0.081  11.173  -4.409  1.00  0.00     0.185 C 
BRANCH  30  31
ATOM     31  C   UNL     1      -1.199  11.784  -3.604  1.00  0.00     0.241 A 
ATOM     32  O   UNL     1      -2.406  12.132  -4.060  1.00  0.00    -0.338 OA
ATOM     33  N   UNL     1      -1.171  12.067  -2.326  1.00  0.00    -0.189 NA
ATOM     34  N   UNL     1      -3.074  12.594  -3.159  1.00  0.00    -0.056 NA
ATOM     35  C   UNL     1      -2.385  12.596  -2.044  1.00  0.00     0.212 A 
BRANCH  35  36
ATOM     36  C   UNL     1      -2.848  13.079  -0.727  1.00  0.00     0.075 A 
ATOM     37  S   UNL     1      -1.976  13.107   0.831  1.00  0.00    -0.140 S 
ATOM     38  C   UNL     1      -4.059  13.617  -0.382  1.00  0.00     0.024 A 
ATOM     39  C   UNL     1      -3.265  13.835   1.828  1.00  0.00     0.065 A 
ATOM     40  C   UNL     1      -4.266  14.000   0.924  1.00  0.00     0.012 A 
ENDBRANCH  35  36
ENDBRANCH  30  31
ENDBRANCH  27  30
ENDBRANCH   2  24
TORSDOF 8
