REMARK SMILES Cc1ccc(C)c(-n2ccnc2SCC(=O)Nc2ccccc2NC(=O)c2ccccc2)c1
REMARK SMILES IDX 15 1 16 2 17 3 14 5 13 6 12 7 8 8 9 9 11 10 10 11 7 12 1 13
REMARK SMILES IDX 2 14 33 15 3 16 4 17 5 18 6 19 18 20 23 21 19 22 22 23 20 24
REMARK SMILES IDX 21 25 24 26 25 27 26 29 27 30 32 31 28 32 31 33 29 34 30 35
REMARK H PARENT 17 4 24 28
REMARK Flexibility Score: inf
ROOT
ATOM      1  C   UNL     1       8.232   2.270   0.046  1.00  0.00     0.234 C 
ATOM      2  O   UNL     1       9.311   1.722   0.122  1.00  0.00    -0.274 OA
ATOM      3  N   UNL     1       7.101   1.538   0.076  1.00  0.00    -0.324 N 
ATOM      4  H   UNL     1       6.184   2.007   0.080  1.00  0.00     0.170 HD
ENDROOT
BRANCH   1   5
ATOM      5  C   UNL     1       8.156   3.769  -0.084  1.00  0.00     0.178 C 
BRANCH   5   6
ATOM      6  S   UNL     1       9.829   4.459  -0.096  1.00  0.00    -0.078 SA
BRANCH   6   7
ATOM      7  C   UNL     1       9.452   6.173  -0.251  1.00  0.00     0.173 A 
ATOM      8  N   UNL     1      10.361   7.189  -0.307  1.00  0.00    -0.295 N 
ATOM      9  C   UNL     1       9.646   8.361  -0.430  1.00  0.00     0.114 A 
ATOM     10  N   UNL     1       8.248   6.691  -0.328  1.00  0.00    -0.231 NA
ATOM     11  C   UNL     1       8.344   8.027  -0.438  1.00  0.00     0.132 A 
BRANCH   8  12
ATOM     12  C   UNL     1      11.756   7.064  -0.251  1.00  0.00     0.051 A 
ATOM     13  C   UNL     1      14.599   8.049   2.035  1.00  0.00     0.044 C 
ATOM     14  C   UNL     1      13.834   7.472   0.872  1.00  0.00    -0.049 A 
ATOM     15  C   UNL     1      12.460   7.597   0.821  1.00  0.00     0.030 A 
ATOM     16  C   UNL     1      14.509   6.818  -0.142  1.00  0.00     0.004 A 
ATOM     17  C   UNL     1      13.811   6.287  -1.210  1.00  0.00     0.006 A 
ATOM     18  C   UNL     1      12.436   6.403  -1.265  1.00  0.00    -0.027 A 
ATOM     19  C   UNL     1      11.675   5.818  -2.427  1.00  0.00     0.046 C 
ENDBRANCH   8  12
ENDBRANCH   6   7
ENDBRANCH   5   6
ENDBRANCH   1   5
BRANCH   3  20
ATOM     20  C   UNL     1       7.172   0.139   0.102  1.00  0.00     0.065 A 
ATOM     21  C   UNL     1       6.206  -0.623  -0.555  1.00  0.00     0.065 A 
ATOM     22  C   UNL     1       8.203  -0.492   0.782  1.00  0.00     0.028 A 
ATOM     23  C   UNL     1       6.279  -2.008  -0.520  1.00  0.00     0.028 A 
ATOM     24  C   UNL     1       8.271  -1.873   0.807  1.00  0.00     0.002 A 
ATOM     25  C   UNL     1       7.313  -2.628   0.155  1.00  0.00     0.002 A 
BRANCH  21  26
ATOM     26  N   UNL     1       5.163   0.008  -1.243  1.00  0.00    -0.320 N 
ATOM     27  C   UNL     1       3.937  -0.551  -1.267  1.00  0.00     0.255 C 
ATOM     28  H   UNL     1       5.332   0.899  -1.731  1.00  0.00     0.170 HD
ATOM     29  O   UNL     1       3.756  -1.641  -0.762  1.00  0.00    -0.269 OA
BRANCH  27  30
ATOM     30  C   UNL     1       2.812   0.163  -1.908  1.00  0.00     0.040 A 
ATOM     31  C   UNL     1       3.016   1.415  -2.489  1.00  0.00     0.014 A 
ATOM     32  C   UNL     1       1.540  -0.413  -1.935  1.00  0.00     0.014 A 
ATOM     33  C   UNL     1       1.962   2.075  -3.086  1.00  0.00     0.001 A 
ATOM     34  C   UNL     1       0.495   0.258  -2.534  1.00  0.00     0.001 A 
ATOM     35  C   UNL     1       0.704   1.499  -3.109  1.00  0.00     0.000 A 
ENDBRANCH  27  30
ENDBRANCH  21  26
ENDBRANCH   3  20
TORSDOF 7
