REMARK SMILES CCCc1cc(=O)[nH]c(-n2nc(-c3ccco3)cc2NC(=O)CC(c2ccccc2)c2ccccc2)n1
REMARK SMILES IDX 10 1 19 2 18 3 12 4 11 5 9 6 4 7 37 8 5 9 6 10 8 11 7 12
REMARK SMILES IDX 3 14 2 15 1 16 20 17 21 18 22 20 23 21 24 22 25 23 30 24
REMARK SMILES IDX 26 25 29 26 27 27 28 28 31 29 36 30 32 31 35 32 33 33 34 34
REMARK SMILES IDX 13 35 17 36 14 37 16 38 15 39
REMARK H PARENT 8 13 20 19
REMARK Flexibility Score: inf
ROOT
ATOM      1  N   UNL     1       1.076  -0.043   5.944  1.00  0.00    -0.183 N 
ATOM      2  C   UNL     1       1.099  -0.081   4.579  1.00  0.00     0.140 A 
ATOM      3  C   UNL     1       1.993  -1.032   4.208  1.00  0.00     0.081 A 
ATOM      4  C   UNL     1       2.531  -1.600   5.383  1.00  0.00     0.130 A 
ATOM      5  N   UNL     1       1.975  -1.006   6.419  1.00  0.00    -0.160 NA
ENDROOT
BRANCH   1   6
ATOM      6  C   UNL     1       0.299   0.795   6.720  1.00  0.00     0.233 A 
ATOM      7  C   UNL     1      -1.275   2.480   6.843  1.00  0.00     0.050 A 
ATOM      8  N   UNL     1      -0.508   1.653   6.134  1.00  0.00    -0.218 NA
ATOM      9  C   UNL     1      -1.235   2.449   8.207  1.00  0.00     0.095 A 
ATOM     10  C   UNL     1      -0.374   1.534   8.841  1.00  0.00     0.252 A 
ATOM     11  N   UNL     1       0.378   0.714   8.075  1.00  0.00    -0.291 N 
ATOM     12  O   UNL     1      -0.313   1.478  10.058  1.00  0.00    -0.269 OA
ATOM     13  H   UNL     1       1.010   0.031   8.516  1.00  0.00     0.173 HD
BRANCH   7  14
ATOM     14  C   UNL     1      -2.188   3.450   6.139  1.00  0.00     0.056 C 
BRANCH  14  15
ATOM     15  C   UNL     1      -1.407   4.716   5.780  1.00  0.00     0.003 C 
ATOM     16  C   UNL     1      -2.334   5.701   5.065  1.00  0.00     0.004 C 
ENDBRANCH  14  15
ENDBRANCH   7  14
ENDBRANCH   1   6
BRANCH   2  17
ATOM     17  N   UNL     1       0.346   0.717   3.721  1.00  0.00    -0.310 N 
ATOM     18  C   UNL     1       0.472   0.579   2.386  1.00  0.00     0.226 C 
ATOM     19  H   UNL     1      -0.308   1.413   4.107  1.00  0.00     0.171 HD
ATOM     20  O   UNL     1       1.242  -0.241   1.932  1.00  0.00    -0.275 OA
BRANCH  18  21
ATOM     21  C   UNL     1      -0.343   1.442   1.459  1.00  0.00     0.113 C 
BRANCH  21  22
ATOM     22  C   UNL     1      -0.013   1.086   0.008  1.00  0.00     0.058 C 
BRANCH  22  23
ATOM     23  C   UNL     1       1.424   1.437  -0.281  1.00  0.00    -0.040 A 
ATOM     24  C   UNL     1       1.898   2.703   0.007  1.00  0.00     0.004 A 
ATOM     25  C   UNL     1       2.270   0.490  -0.828  1.00  0.00     0.004 A 
ATOM     26  C   UNL     1       3.216   3.025  -0.257  1.00  0.00     0.000 A 
ATOM     27  C   UNL     1       3.587   0.813  -1.097  1.00  0.00     0.000 A 
ATOM     28  C   UNL     1       4.061   2.080  -0.809  1.00  0.00     0.000 A 
ENDBRANCH  22  23
BRANCH  22  29
ATOM     29  C   UNL     1      -0.915   1.861  -0.918  1.00  0.00    -0.040 A 
ATOM     30  C   UNL     1      -1.637   1.199  -1.893  1.00  0.00     0.004 A 
ATOM     31  C   UNL     1      -1.023   3.233  -0.788  1.00  0.00     0.004 A 
ATOM     32  C   UNL     1      -2.465   1.910  -2.741  1.00  0.00     0.000 A 
ATOM     33  C   UNL     1      -1.847   3.944  -1.641  1.00  0.00     0.000 A 
ATOM     34  C   UNL     1      -2.570   3.283  -2.616  1.00  0.00     0.000 A 
ENDBRANCH  22  29
ENDBRANCH  21  22
ENDBRANCH  18  21
ENDBRANCH   2  17
BRANCH   4  35
ATOM     35  C   UNL     1       3.543  -2.676   5.440  1.00  0.00     0.154 A 
ATOM     36  O   UNL     1       4.112  -3.283   4.381  1.00  0.00    -0.463 OA
ATOM     37  C   UNL     1       4.065  -3.220   6.572  1.00  0.00     0.052 A 
ATOM     38  C   UNL     1       4.984  -4.209   4.813  1.00  0.00     0.196 A 
ATOM     39  C   UNL     1       4.984  -4.207   6.161  1.00  0.00     0.043 A 
ENDBRANCH   4  35
TORSDOF 9
