REMARK SMILES COC(=O)c1cccc2c(/C=N/NC(=O)CSc3cc(C(C)(C)C)c(O)c(C(C)(C)C)c3)c[nH]c12
REMARK SMILES IDX 14 1 15 2 13 3 16 5 17 6 18 7 20 8 25 9 19 10 27 11 32 12
REMARK SMILES IDX 21 13 22 14 23 15 24 16 26 17 28 19 29 20 30 21 31 22 12 23
REMARK SMILES IDX 11 24 10 25 9 26 33 27 35 28 8 29 34 30 5 31 7 32 6 34 3 35
REMARK SMILES IDX 4 36 2 37 1 38
REMARK H PARENT 13 4 26 18 34 33
REMARK Flexibility Score: inf
ROOT
ATOM      1  C   UNL     1      -0.018   1.503   0.010  1.00  0.00     0.250 C 
ATOM      2  O   UNL     1      -1.077   2.095   0.018  1.00  0.00    -0.272 OA
ATOM      3  N   UNL     1       1.139   2.192   0.003  1.00  0.00    -0.246 N 
ATOM      4  H   UNL     1       2.038   1.690  -0.008  1.00  0.00     0.193 HD
ENDROOT
BRANCH   1   5
ATOM      5  C   UNL     1       0.002  -0.004   0.002  1.00  0.00     0.176 C 
BRANCH   5   6
ATOM      6  S   UNL     1      -1.700  -0.632   0.015  1.00  0.00    -0.116 SA
BRANCH   6   7
ATOM      7  C   UNL     1      -1.508  -2.383   0.004  1.00  0.00     0.009 A 
ATOM      8  C   UNL     1      -2.477  -4.578   0.001  1.00  0.00     0.001 A 
ATOM      9  C   UNL     1      -1.207  -5.136  -0.015  1.00  0.00     0.123 A 
ATOM     10  C   UNL     1      -2.628  -3.205   0.010  1.00  0.00     0.023 A 
ATOM     11  C   UNL     1      -0.088  -4.316  -0.021  1.00  0.00     0.001 A 
ATOM     12  C   UNL     1      -0.237  -2.943  -0.017  1.00  0.00     0.023 A 
BRANCH   8  13
ATOM     13  C   UNL     1      -3.691  -5.470   0.007  1.00  0.00    -0.009 C 
ATOM     14  C   UNL     1      -4.956  -4.609   0.024  1.00  0.00     0.016 C 
ATOM     15  C   UNL     1      -3.687  -6.346  -1.247  1.00  0.00     0.016 C 
ATOM     16  C   UNL     1      -3.664  -6.360   1.251  1.00  0.00     0.016 C 
ENDBRANCH   8  13
BRANCH   9  17
ATOM     17  O   UNL     1      -1.059  -6.488  -0.024  1.00  0.00    -0.507 OA
ATOM     18  H   UNL     1      -1.566  -6.795  -0.817  1.00  0.00     0.293 HD
ENDBRANCH   9  17
BRANCH  11  19
ATOM     19  C   UNL     1       1.291  -4.924  -0.038  1.00  0.00    -0.009 C 
ATOM     20  C   UNL     1       2.340  -3.810  -0.042  1.00  0.00     0.016 C 
ATOM     21  C   UNL     1       1.479  -5.796   1.205  1.00  0.00     0.016 C 
ATOM     22  C   UNL     1       1.455  -5.783  -1.293  1.00  0.00     0.016 C 
ENDBRANCH  11  19
ENDBRANCH   6   7
ENDBRANCH   5   6
ENDBRANCH   1   5
BRANCH   3  23
ATOM     23  N   UNL     1       1.121   3.593   0.011  1.00  0.00    -0.181 NA
ATOM     24  C   UNL     1       2.236   4.258   0.004  1.00  0.00     0.143 C 
BRANCH  24  25
ATOM     25  C   UNL     1       2.217   5.730   0.012  1.00  0.00     0.020 A 
ATOM     26  C   UNL     1       1.024   6.596   0.022  1.00  0.00     0.009 A 
ATOM     27  C   UNL     1       3.295   6.559   0.005  1.00  0.00     0.093 A 
ATOM     28  C   UNL     1       1.505   7.915   0.030  1.00  0.00     0.061 A 
ATOM     29  C   UNL     1      -0.347   6.351   0.026  1.00  0.00     0.011 A 
ATOM     30  N   UNL     1       2.876   7.856   0.017  1.00  0.00    -0.360 N 
ATOM     31  C   UNL     1       0.588   8.980   0.045  1.00  0.00     0.084 A 
ATOM     32  C   UNL     1      -1.237   7.406   0.034  1.00  0.00     0.002 A 
ATOM     33  H   UNL     1       3.500   8.676   0.015  1.00  0.00     0.166 HD
ATOM     34  C   UNL     1      -0.780   8.711   0.039  1.00  0.00     0.018 A 
BRANCH  31  35
ATOM     35  C   UNL     1       1.069  10.373   0.049  1.00  0.00     0.339 C 
ATOM     36  O   UNL     1       2.262  10.604   0.038  1.00  0.00    -0.246 OA
BRANCH  35  37
ATOM     37  O   UNL     1       0.186  11.391   0.063  1.00  0.00    -0.465 OA
ATOM     38  C   UNL     1       0.732  12.737   0.065  1.00  0.00     0.282 C 
ENDBRANCH  35  37
ENDBRANCH  31  35
ENDBRANCH  24  25
ENDBRANCH   3  23
TORSDOF 10
