REMARK SMILES CC(=O)Nc1cc(C(=O)NCCN2CCN(c3cccc(Cl)c3)CC2)ccc1Sc1ccc(C)cc1
REMARK SMILES IDX 8 1 9 2 10 3 7 5 28 6 5 7 27 8 6 9 26 10 29 11 30 12 34 13
REMARK SMILES IDX 33 14 35 15 32 16 36 17 31 18 4 19 2 20 3 22 1 23 11 24
REMARK SMILES IDX 12 25 13 26 14 27 25 28 15 29 24 30 16 31 17 32 23 33 18 34
REMARK SMILES IDX 21 35 19 36 20 37 22 38
REMARK H PARENT 10 4 4 21
REMARK Flexibility Score: inf
ROOT
ATOM      1  C   UNL     1      -0.893   1.037   0.274  1.00  0.00     0.251 C 
ATOM      2  O   UNL     1      -0.793   2.249   0.286  1.00  0.00    -0.269 OA
ATOM      3  N   UNL     1       0.212   0.269   0.341  1.00  0.00    -0.351 N 
ATOM      4  H   UNL     1       0.128  -0.758   0.335  1.00  0.00     0.163 HD
ENDROOT
BRANCH   1   5
ATOM      5  C   UNL     1      -2.224   0.407   0.185  1.00  0.00     0.041 A 
ATOM      6  C   UNL     1      -4.725  -0.784   0.017  1.00  0.00     0.036 A 
ATOM      7  C   UNL     1      -4.616   0.610   0.031  1.00  0.00     0.056 A 
ATOM      8  C   UNL     1      -3.582  -1.574   0.087  1.00  0.00     0.018 A 
ATOM      9  C   UNL     1      -3.371   1.203   0.114  1.00  0.00     0.041 A 
ATOM     10  C   UNL     1      -2.339  -0.986   0.165  1.00  0.00     0.015 A 
BRANCH   6  11
ATOM     11  S   UNL     1      -6.312  -1.542  -0.089  1.00  0.00    -0.088 SA
BRANCH  11  12
ATOM     12  C   UNL     1      -6.726  -1.427  -1.798  1.00  0.00     0.012 A 
ATOM     13  C   UNL     1      -7.729  -1.150  -5.944  1.00  0.00     0.044 C 
ATOM     14  C   UNL     1      -7.375  -1.248  -4.482  1.00  0.00    -0.051 A 
ATOM     15  C   UNL     1      -6.220  -0.652  -4.011  1.00  0.00     0.004 A 
ATOM     16  C   UNL     1      -8.207  -1.933  -3.616  1.00  0.00     0.004 A 
ATOM     17  C   UNL     1      -5.895  -0.735  -2.671  1.00  0.00     0.016 A 
ATOM     18  C   UNL     1      -7.886  -2.025  -2.276  1.00  0.00     0.016 A 
ENDBRANCH  11  12
ENDBRANCH   6  11
BRANCH   7  19
ATOM     19  N   UNL     1      -5.768   1.404  -0.041  1.00  0.00    -0.325 N 
ATOM     20  C   UNL     1      -5.692   2.661  -0.520  1.00  0.00     0.221 C 
ATOM     21  H   UNL     1      -6.674   1.027   0.273  1.00  0.00     0.169 HD
ATOM     22  O   UNL     1      -4.649   3.070  -0.986  1.00  0.00    -0.275 OA
ATOM     23  C   UNL     1      -6.901   3.559  -0.476  1.00  0.00     0.114 C 
ENDBRANCH   7  19
ENDBRANCH   1   5
BRANCH   3  24
ATOM     24  C   UNL     1       1.535   0.894   0.424  1.00  0.00     0.131 C 
BRANCH  24  25
ATOM     25  C   UNL     1       2.610  -0.193   0.482  1.00  0.00     0.106 C 
BRANCH  25  26
ATOM     26  N   UNL     1       3.936   0.453   0.586  1.00  0.00    -0.298 NA
ATOM     27  C   UNL     1       4.250   1.166  -0.670  1.00  0.00     0.106 C 
ATOM     28  C   UNL     1       4.973  -0.564   0.861  1.00  0.00     0.106 C 
ATOM     29  C   UNL     1       5.601   1.868  -0.514  1.00  0.00     0.132 C 
ATOM     30  C   UNL     1       6.324   0.138   1.017  1.00  0.00     0.132 C 
ATOM     31  N   UNL     1       6.638   0.870  -0.218  1.00  0.00    -0.369 N 
BRANCH  31  32
ATOM     32  C   UNL     1       7.899   1.466  -0.140  1.00  0.00     0.038 A 
ATOM     33  C   UNL     1       8.386   2.207  -1.209  1.00  0.00     0.046 A 
ATOM     34  C   UNL     1       8.666   1.324   1.010  1.00  0.00     0.026 A 
ATOM     35  C   UNL     1       9.634   2.796  -1.128  1.00  0.00     0.043 A 
ATOM     36  C   UNL     1       9.914   1.910   1.083  1.00  0.00     0.004 A 
ATOM     37  C   UNL     1      10.397   2.647   0.017  1.00  0.00     0.020 A 
ATOM     38  Cl  UNL     1      10.244   3.723  -2.463  1.00  0.00    -0.084 Cl
ENDBRANCH  31  32
ENDBRANCH  25  26
ENDBRANCH  24  25
ENDBRANCH   3  24
TORSDOF 8
