REMARK SMILES Clc1cc2nc(C3CC[NH2+]CC3)n(Cc3ccc(C[NH2+]CCC4=NCN=C4)cc3)c2cc1Cl
REMARK SMILES IDX 19 1 18 2 17 3 16 4 28 5 15 6 29 7 14 8 13 9 6 10 30 11 5 12
REMARK SMILES IDX 4 13 31 14 3 15 32 16 2 17 33 18 1 19 7 20 12 21 8 22 11 23
REMARK SMILES IDX 9 24 10 25 20 28 21 31 22 32 23 33 27 34 24 35 26 36 25 37
REMARK H PARENT 10 26 10 27 20 29 20 30
REMARK Flexibility Score: inf
ROOT
ATOM      1  C   UNL     1      -3.175   3.225  -5.298  1.00  0.00     0.297 C 
ENDROOT
BRANCH   1   2
ATOM      2  C   UNL     1      -4.222   3.933  -6.118  1.00  0.00     0.006 A 
ATOM      3  C   UNL     1      -5.372   3.266  -6.498  1.00  0.00     0.010 A 
ATOM      4  C   UNL     1      -6.333   3.918  -7.247  1.00  0.00     0.006 A 
ATOM      5  C   UNL     1      -4.030   5.249  -6.496  1.00  0.00     0.010 A 
ATOM      6  C   UNL     1      -6.142   5.234  -7.624  1.00  0.00    -0.028 A 
ATOM      7  C   UNL     1      -4.990   5.900  -7.248  1.00  0.00     0.006 A 
BRANCH   6   8
ATOM      8  C   UNL     1      -7.188   5.943  -8.445  1.00  0.00     0.159 C 
BRANCH   8   9
ATOM      9  N   UNL     1      -6.905   5.750  -9.869  1.00  0.00    -0.323 N 
ATOM     10  C   UNL     1      -6.139   6.554 -10.655  1.00  0.00     0.113 A 
ATOM     11  C   UNL     1      -7.371   4.721 -10.665  1.00  0.00     0.070 A 
ATOM     12  N   UNL     1      -6.097   6.085 -11.868  1.00  0.00    -0.233 NA
ATOM     13  C   UNL     1      -6.843   4.953 -11.946  1.00  0.00     0.090 A 
ATOM     14  C   UNL     1      -8.184   3.619 -10.438  1.00  0.00     0.050 A 
ATOM     15  C   UNL     1      -7.141   4.066 -12.984  1.00  0.00     0.052 A 
ATOM     16  C   UNL     1      -8.469   2.753 -11.473  1.00  0.00     0.061 A 
ATOM     17  C   UNL     1      -7.949   2.977 -12.742  1.00  0.00     0.061 A 
ATOM     18  Cl  UNL     1      -9.485   1.375 -11.189  1.00  0.00    -0.083 Cl
ATOM     19  Cl  UNL     1      -8.319   1.876 -14.033  1.00  0.00    -0.083 Cl
BRANCH  10  20
ATOM     20  C   UNL     1      -5.437   7.803 -10.187  1.00  0.00     0.067 C 
ATOM     21  C   UNL     1      -3.928   7.654 -10.405  1.00  0.00     0.073 C 
ATOM     22  C   UNL     1      -5.944   9.005 -10.988  1.00  0.00     0.073 C 
ATOM     23  C   UNL     1      -3.227   8.947  -9.985  1.00  0.00     0.261 C 
ATOM     24  C   UNL     1      -5.184  10.260 -10.552  1.00  0.00     0.261 C 
ATOM     25  N   UNL     1      -3.746  10.067 -10.780  1.00  0.00    -0.346 N 
ATOM     26  H   UNL     1      -3.242  10.928 -10.522  1.00  0.00     0.346 HD
ATOM     27  H   UNL     1      -3.584   9.876 -11.780  1.00  0.00     0.346 HD
ENDBRANCH  10  20
ENDBRANCH   8   9
ENDBRANCH   6   8
ENDBRANCH   1   2
BRANCH   1  28
ATOM     28  N   UNL     1      -3.459   3.418  -3.870  1.00  0.00    -0.342 N 
ATOM     29  H   UNL     1      -3.451   4.426  -3.655  1.00  0.00     0.346 HD
ATOM     30  H   UNL     1      -4.392   3.040  -3.653  1.00  0.00     0.346 HD
BRANCH  28  31
ATOM     31  C   UNL     1      -2.457   2.740  -3.037  1.00  0.00     0.267 C 
BRANCH  31  32
ATOM     32  C   UNL     1      -2.784   2.963  -1.560  1.00  0.00     0.118 C 
BRANCH  32  33
ATOM     33  C   UNL     1      -1.756   2.267  -0.706  1.00  0.00     0.061 C 
ATOM     34  C   UNL     1      -1.743   2.259   0.765  1.00  0.00     0.130 C 
ATOM     35  N   UNL     1      -0.755   1.588  -1.155  1.00  0.00    -0.265 NA
ATOM     36  N   UNL     1      -0.732   1.575   1.191  1.00  0.00    -0.268 NA
ATOM     37  C   UNL     1      -0.013   1.086   0.008  1.00  0.00     0.283 C 
ENDBRANCH  32  33
ENDBRANCH  31  32
ENDBRANCH  28  31
ENDBRANCH   1  28
TORSDOF 8
