REMARK SMILES [H]/N=C1C(=C\c2cc(C)n(-c3ccccc3OC)c2C)/C(=O)N=C2SC(c3cccc(C)c3)=NN2/1
REMARK SMILES IDX 6 1 7 2 8 3 10 4 19 5 20 6 9 7 5 8 26 9 25 10 34 11 24 12
REMARK SMILES IDX 35 13 23 14 3 15 21 16 2 17 4 18 22 19 1 20 27 21 32 22
REMARK SMILES IDX 31 23 33 24 30 25 29 26 28 27 11 28 16 29 12 30 15 31 13 32
REMARK SMILES IDX 14 33 17 34 18 35
REMARK H PARENT
REMARK Flexibility Score: inf
ROOT
ATOM      1  C   UNL     1      -3.618   2.225  -0.519  1.00  0.00    -0.003 A 
ATOM      2  C   UNL     1      -3.705   3.652  -0.177  1.00  0.00     0.031 A 
ATOM      3  C   UNL     1      -4.988   4.008  -0.355  1.00  0.00     0.021 A 
ATOM      4  N   UNL     1      -5.702   2.922  -0.780  1.00  0.00    -0.315 N 
ATOM      5  C   UNL     1      -4.898   1.846  -0.890  1.00  0.00     0.027 A 
ATOM      6  C   UNL     1      -5.319   0.469  -1.335  1.00  0.00     0.065 C 
ATOM      7  C   UNL     1      -5.551   5.387  -0.124  1.00  0.00     0.065 C 
ENDROOT
BRANCH   1   8
ATOM      8  C   UNL     1      -2.460   1.407  -0.484  1.00  0.00     0.028 C 
ATOM      9  C   UNL     1       1.172   5.495   1.813  1.00  0.00     0.132 C 
ATOM     10  S   UNL     1       2.239   4.151   1.312  1.00  0.00    -0.027 SA
ATOM     11  N   UNL     1      -0.021   4.969   1.674  1.00  0.00    -0.156 NA
ATOM     12  C   UNL     1       0.969   2.977   0.920  1.00  0.00     0.200 C 
ATOM     13  N   UNL     1      -0.178   3.666   1.254  1.00  0.00    -0.189 N 
ATOM     14  N   UNL     1       1.059   1.758   0.451  1.00  0.00    -0.182 NA
ATOM     15  C   UNL     1      -1.404   2.970   1.173  1.00  0.00     0.162 C 
ATOM     16  C   UNL     1      -0.069   1.075   0.172  1.00  0.00     0.283 C 
ATOM     17  N   UNL     1      -2.473   3.322   1.838  1.00  0.00    -0.282 NA
ATOM     18  C   UNL     1      -1.360   1.799   0.251  1.00  0.00     0.087 C 
ATOM     19  O   UNL     1      -0.028  -0.104  -0.143  1.00  0.00    -0.267 OA
ATOM     20  H   UNL     1      -2.405   4.149   2.447  1.00  0.00     0.189 HD
BRANCH   9  21
ATOM     21  C   UNL     1       1.541   6.853   2.268  1.00  0.00     0.009 A 
ATOM     22  C   UNL     1       4.671   8.896   2.861  1.00  0.00     0.044 C 
ATOM     23  C   UNL     1       3.221   8.493   2.774  1.00  0.00    -0.050 A 
ATOM     24  C   UNL     1       2.884   7.224   2.349  1.00  0.00     0.014 A 
ATOM     25  C   UNL     1       2.232   9.396   3.120  1.00  0.00     0.003 A 
ATOM     26  C   UNL     1       0.899   9.034   3.042  1.00  0.00     0.001 A 
ATOM     27  C   UNL     1       0.548   7.770   2.614  1.00  0.00     0.011 A 
ENDBRANCH   9  21
ENDBRANCH   1   8
BRANCH   4  28
ATOM     28  C   UNL     1      -7.074   2.929  -1.066  1.00  0.00     0.088 A 
ATOM     29  C   UNL     1      -7.998   2.636  -0.065  1.00  0.00     0.142 A 
ATOM     30  C   UNL     1      -7.516   3.221  -2.348  1.00  0.00     0.030 A 
ATOM     31  C   UNL     1      -9.354   2.648  -0.352  1.00  0.00     0.048 A 
ATOM     32  C   UNL     1      -8.870   3.226  -2.628  1.00  0.00     0.002 A 
ATOM     33  C   UNL     1      -9.786   2.941  -1.632  1.00  0.00     0.004 A 
BRANCH  29  34
ATOM     34  O   UNL     1      -7.571   2.344   1.192  1.00  0.00    -0.495 OA
ATOM     35  C   UNL     1      -8.574   2.054   2.167  1.00  0.00     0.278 C 
ENDBRANCH  29  34
ENDBRANCH   4  28
TORSDOF 4
