REMARK SMILES CC(C)c1ccc(C(=O)NC(=S)[N-]c2ccc(Cl)c(C(=O)NC3CCCCC3)c2)cc1
REMARK SMILES IDX 11 1 12 2 10 3 8 4 9 5 7 7 4 8 31 9 5 10 30 11 6 12 2 13
REMARK SMILES IDX 1 14 3 15 13 16 14 17 29 18 15 19 19 20 16 21 17 22 18 23
REMARK SMILES IDX 20 24 21 25 22 26 23 28 28 29 24 30 27 31 25 32 26 33
REMARK H PARENT 10 6 22 27
REMARK Flexibility Score: inf
ROOT
ATOM      1  C   UNL     1       2.074   6.201  -0.930  1.00  0.00     0.010 C 
ATOM      2  S   UNL     1       1.723   5.131  -2.220  1.00  0.00    -0.090 S 
ENDROOT
BRANCH   1   3
ATOM      3  N   UNL     1       3.269   6.822  -0.875  1.00  0.00    -0.415 N 
ATOM      4  C   UNL     1       4.188   6.601  -1.836  1.00  0.00     0.176 C 
ATOM      5  O   UNL     1       3.939   5.843  -2.752  1.00  0.00    -0.294 OA
ATOM      6  H   UNL     1       3.479   7.465  -0.099  1.00  0.00     0.030 HD
BRANCH   4   7
ATOM      7  C   UNL     1       5.497   7.283  -1.776  1.00  0.00     0.018 A 
ATOM      8  C   UNL     1       7.952   8.560  -1.664  1.00  0.00    -0.045 A 
ATOM      9  C   UNL     1       7.011   8.788  -0.675  1.00  0.00     0.005 A 
ATOM     10  C   UNL     1       7.672   7.696  -2.708  1.00  0.00     0.005 A 
ATOM     11  C   UNL     1       5.784   8.160  -0.728  1.00  0.00     0.012 A 
ATOM     12  C   UNL     1       6.452   7.056  -2.770  1.00  0.00     0.012 A 
BRANCH   8  13
ATOM     13  C   UNL     1       9.288   9.254  -1.603  1.00  0.00     0.013 C 
ATOM     14  C   UNL     1       9.077  10.769  -1.633  1.00  0.00     0.012 C 
ATOM     15  C   UNL     1      10.006   8.866  -0.309  1.00  0.00     0.012 C 
ENDBRANCH   8  13
ENDBRANCH   4   7
ENDBRANCH   1   3
BRANCH   1  16
ATOM     16  N   UNL     1       1.155   6.421   0.032  1.00  0.00    -0.427 NA
BRANCH  16  17
ATOM     17  C   UNL     1      -0.039   5.690   0.039  1.00  0.00    -0.040 A 
ATOM     18  C   UNL     1      -0.020   4.331  -0.230  1.00  0.00     0.019 A 
ATOM     19  C   UNL     1      -1.242   6.329   0.317  1.00  0.00     0.005 A 
ATOM     20  C   UNL     1      -1.213   3.607  -0.221  1.00  0.00     0.058 A 
ATOM     21  C   UNL     1      -2.424   5.612   0.327  1.00  0.00     0.021 A 
ATOM     22  C   UNL     1      -2.418   4.258   0.055  1.00  0.00     0.053 A 
ATOM     23  Cl  UNL     1      -3.906   3.364   0.061  1.00  0.00    -0.083 Cl
BRANCH  20  24
ATOM     24  C   UNL     1      -1.202   2.157  -0.507  1.00  0.00     0.253 C 
ATOM     25  O   UNL     1      -2.242   1.528  -0.498  1.00  0.00    -0.269 OA
ATOM     26  N   UNL     1      -0.038   1.532  -0.777  1.00  0.00    -0.349 N 
ATOM     27  H   UNL     1       0.843   2.065  -0.785  1.00  0.00     0.164 HD
BRANCH  26  28
ATOM     28  C   UNL     1      -0.028   0.095  -1.061  1.00  0.00     0.082 C 
ATOM     29  C   UNL     1       1.194  -0.247  -1.917  1.00  0.00     0.025 C 
ATOM     30  C   UNL     1       0.036  -0.684   0.254  1.00  0.00     0.025 C 
ATOM     31  C   UNL     1       1.206  -1.748  -2.213  1.00  0.00     0.002 C 
ATOM     32  C   UNL     1       0.048  -2.185  -0.043  1.00  0.00     0.002 C 
ATOM     33  C   UNL     1       1.270  -2.527  -0.898  1.00  0.00     0.000 C 
ENDBRANCH  26  28
ENDBRANCH  20  24
ENDBRANCH  16  17
ENDBRANCH   1  16
TORSDOF 7
