REMARK SMILES CO[C@H]1[C@H](NC(=O)c2cccs2)c2ccccc2C12CC[NH+](Cc1cc[nH]n1)CC2
REMARK SMILES IDX 3 1 4 2 13 3 14 4 15 5 16 6 17 7 18 8 19 9 20 10 21 11 29 12
REMARK SMILES IDX 30 13 22 14 2 16 1 17 5 18 6 19 7 21 8 22 12 23 9 24 11 25
REMARK SMILES IDX 10 26 23 27 24 28 28 29 25 30 27 31 26 32
REMARK H PARENT 22 15 5 20 27 33
REMARK Flexibility Score: inf
ROOT
ATOM      1  C   UNL     1      -0.671   3.128  -1.298  1.00  0.00     0.155 C 
ATOM      2  C   UNL     1      -0.588   3.383  -2.819  1.00  0.00     0.143 C 
ATOM      3  C   UNL     1       0.015   2.122  -3.401  1.00  0.00    -0.019 A 
ATOM      4  C   UNL     1       0.602   1.895  -4.635  1.00  0.00     0.006 A 
ATOM      5  C   UNL     1       1.090   0.643  -4.953  1.00  0.00     0.000 A 
ATOM      6  C   UNL     1       0.993  -0.388  -4.037  1.00  0.00     0.000 A 
ATOM      7  C   UNL     1       0.409  -0.164  -2.806  1.00  0.00     0.005 A 
ATOM      8  C   UNL     1      -0.081   1.091  -2.484  1.00  0.00    -0.033 A 
ATOM      9  C   UNL     1      -0.752   1.592  -1.228  1.00  0.00     0.035 C 
ATOM     10  C   UNL     1      -0.013   1.086   0.008  1.00  0.00     0.076 C 
ATOM     11  C   UNL     1      -0.731   1.580   1.267  1.00  0.00     0.263 C 
ATOM     12  C   UNL     1      -2.859   1.640   0.106  1.00  0.00     0.263 C 
ATOM     13  C   UNL     1      -2.212   1.148  -1.191  1.00  0.00     0.076 C 
ATOM     14  N   UNL     1      -2.120   1.073   1.255  1.00  0.00    -0.330 N 
ATOM     15  H   UNL     1      -2.099   0.047   1.164  1.00  0.00     0.348 HD
ENDROOT
BRANCH   1  16
ATOM     16  O   UNL     1       0.500   3.606  -0.633  1.00  0.00    -0.378 OA
ATOM     17  C   UNL     1       0.353   4.906  -0.060  1.00  0.00     0.195 C 
ENDBRANCH   1  16
BRANCH   2  18
ATOM     18  N   UNL     1      -1.926   3.608  -3.370  1.00  0.00    -0.342 N 
ATOM     19  C   UNL     1      -2.077   4.322  -4.503  1.00  0.00     0.261 C 
ATOM     20  H   UNL     1      -2.752   3.220  -2.892  1.00  0.00     0.164 HD
ATOM     21  O   UNL     1      -1.101   4.780  -5.069  1.00  0.00    -0.268 OA
BRANCH  19  22
ATOM     22  C   UNL     1      -3.416   4.546  -5.055  1.00  0.00     0.092 A 
ATOM     23  S   UNL     1      -4.995   3.988  -4.439  1.00  0.00    -0.139 S 
ATOM     24  C   UNL     1      -3.786   5.243  -6.195  1.00  0.00     0.025 A 
ATOM     25  C   UNL     1      -6.011   4.683  -5.660  1.00  0.00     0.065 A 
ATOM     26  C   UNL     1      -5.126   5.300  -6.486  1.00  0.00     0.012 A 
ENDBRANCH  19  22
ENDBRANCH   2  18
BRANCH  14  27
ATOM     27  C   UNL     1      -2.799   1.431   2.517  1.00  0.00     0.321 C 
BRANCH  27  28
ATOM     28  C   UNL     1      -2.157   0.666   3.646  1.00  0.00     0.116 A 
ATOM     29  N   UNL     1      -2.451  -0.557   4.008  1.00  0.00    -0.175 NA
ATOM     30  C   UNL     1      -1.150   1.142   4.492  1.00  0.00     0.051 A 
ATOM     31  N   UNL     1      -1.631  -0.901   5.091  1.00  0.00    -0.285 N 
ATOM     32  C   UNL     1      -0.845   0.159   5.370  1.00  0.00     0.105 A 
ATOM     33  H   UNL     1      -1.629  -1.804   5.587  1.00  0.00     0.189 HD
ENDBRANCH  27  28
ENDBRANCH  14  27
TORSDOF 5
