REMARK SMILES O=C(NNC(=O)c1cc(-c2cccs2)nc2ccccc12)c1ccncc1
REMARK SMILES IDX 5 1 6 2 4 3 7 5 19 6 20 7 18 8 21 9 17 10 16 11 15 12 8 13
REMARK SMILES IDX 9 14 10 15 14 16 11 17 13 18 12 19 3 20 2 21 1 23 22 24
REMARK SMILES IDX 27 25 23 26 26 27 24 28 25 29
REMARK H PARENT 4 4 3 22
REMARK Flexibility Score: inf
ROOT
ATOM      1  C   UNL     1      -6.058   3.291   0.075  1.00  0.00     0.270 C 
ATOM      2  O   UNL     1      -6.073   2.075   0.076  1.00  0.00    -0.267 OA
ATOM      3  N   UNL     1      -4.883   3.950   0.059  1.00  0.00    -0.263 N 
ATOM      4  H   UNL     1      -4.870   4.980   0.057  1.00  0.00     0.191 HD
ENDROOT
BRANCH   1   5
ATOM      5  C   UNL     1      -7.330   4.046   0.090  1.00  0.00     0.053 A 
ATOM      6  C   UNL     1      -9.927   1.375  -0.216  1.00  0.00     0.001 A 
ATOM      7  C   UNL     1      -8.704   1.972  -0.125  1.00  0.00     0.011 A 
ATOM      8  C   UNL     1     -11.095   2.134  -0.196  1.00  0.00     0.002 A 
ATOM      9  C   UNL     1      -8.621   3.363  -0.011  1.00  0.00     0.013 A 
ATOM     10  C   UNL     1     -11.049   3.490  -0.086  1.00  0.00     0.029 A 
ATOM     11  C   UNL     1      -9.806   4.141   0.010  1.00  0.00     0.072 A 
ATOM     12  N   UNL     1      -9.731   5.469   0.120  1.00  0.00    -0.247 NA
ATOM     13  C   UNL     1      -7.346   5.427   0.206  1.00  0.00     0.044 A 
ATOM     14  C   UNL     1      -8.578   6.104   0.212  1.00  0.00     0.082 A 
BRANCH  14  15
ATOM     15  C   UNL     1      -8.583   7.575   0.331  1.00  0.00     0.053 A 
ATOM     16  S   UNL     1      -7.201   8.696   0.470  1.00  0.00    -0.142 S 
ATOM     17  C   UNL     1      -9.649   8.436   0.357  1.00  0.00     0.022 A 
ATOM     18  C   UNL     1      -8.123  10.222   0.561  1.00  0.00     0.065 A 
ATOM     19  C   UNL     1      -9.407   9.785   0.481  1.00  0.00     0.012 A 
ENDBRANCH  14  15
ENDBRANCH   1   5
BRANCH   3  20
ATOM     20  N   UNL     1      -3.678   3.235   0.044  1.00  0.00    -0.263 N 
ATOM     21  C   UNL     1      -2.503   3.895   0.029  1.00  0.00     0.269 C 
ATOM     22  H   UNL     1      -3.691   2.205   0.046  1.00  0.00     0.191 HD
ATOM     23  O   UNL     1      -2.488   5.110   0.027  1.00  0.00    -0.267 OA
BRANCH  21  24
ATOM     24  C   UNL     1      -1.229   3.139   0.013  1.00  0.00     0.044 A 
ATOM     25  C   UNL     1       0.001   3.804  -0.003  1.00  0.00     0.034 A 
ATOM     26  C   UNL     1      -1.224   1.741   0.009  1.00  0.00     0.034 A 
ATOM     27  C   UNL     1       1.164   3.059  -0.018  1.00  0.00     0.112 A 
ATOM     28  C   UNL     1      -0.013   1.076  -0.000  1.00  0.00     0.112 A 
ATOM     29  N   UNL     1       1.125   1.742  -0.016  1.00  0.00    -0.265 NA
ENDBRANCH  21  24
ENDBRANCH   3  20
TORSDOF 4
