REMARK SMILES CC(C)(C)c1ccc(OCc2cccc(-c3nc(-c4nonc4N)no3)c2)cc1
REMARK SMILES IDX 11 1 12 2 13 3 14 4 15 5 27 6 10 7 9 8 8 9 5 10 29 11 6 12
REMARK SMILES IDX 28 13 7 14 2 15 1 16 3 17 4 18 16 19 26 20 17 21 25 22 18 23
REMARK SMILES IDX 19 24 20 25 23 26 21 27 22 28 24 29
REMARK H PARENT 24 30 24 31
REMARK Flexibility Score: inf
ROOT
ATOM      1  C   UNL     1       1.167   3.166   0.007  1.00  0.00    -0.010 A 
ATOM      2  C   UNL     1       1.177   1.782   0.000  1.00  0.00     0.007 A 
ATOM      3  C   UNL     1      -0.013   1.076   0.008  1.00  0.00     0.001 A 
ATOM      4  C   UNL     1      -1.218   1.748   0.017  1.00  0.00     0.014 A 
ATOM      5  C   UNL     1      -1.235   3.143   0.030  1.00  0.00     0.040 A 
ATOM      6  C   UNL     1      -0.031   3.850   0.022  1.00  0.00     0.021 A 
ENDROOT
BRANCH   1   7
ATOM      7  C   UNL     1       2.467   3.927  -0.001  1.00  0.00     0.265 C 
BRANCH   7   8
ATOM      8  O   UNL     1       2.865   4.175  -1.351  1.00  0.00    -0.489 OA
BRANCH   8   9
ATOM      9  C   UNL     1       4.026   4.856  -1.537  1.00  0.00     0.119 A 
ATOM     10  C   UNL     1       6.390   6.244  -1.916  1.00  0.00    -0.042 A 
ATOM     11  C   UNL     1       5.947   5.970  -0.635  1.00  0.00     0.008 A 
ATOM     12  C   UNL     1       5.653   5.824  -3.008  1.00  0.00     0.008 A 
ATOM     13  C   UNL     1       4.764   5.283  -0.443  1.00  0.00     0.047 A 
ATOM     14  C   UNL     1       4.472   5.131  -2.822  1.00  0.00     0.047 A 
BRANCH  10  15
ATOM     15  C   UNL     1       7.677   6.999  -2.122  1.00  0.00    -0.013 C 
ATOM     16  C   UNL     1       7.393   8.289  -2.895  1.00  0.00     0.016 C 
ATOM     17  C   UNL     1       8.290   7.343  -0.763  1.00  0.00     0.016 C 
ATOM     18  C   UNL     1       8.655   6.133  -2.918  1.00  0.00     0.016 C 
ENDBRANCH  10  15
ENDBRANCH   8   9
ENDBRANCH   7   8
ENDBRANCH   1   7
BRANCH   5  19
ATOM     19  C   UNL     1      -2.522   3.870   0.045  1.00  0.00     0.258 A 
ATOM     20  O   UNL     1      -2.689   5.202   0.053  1.00  0.00    -0.334 OA
ATOM     21  N   UNL     1      -3.728   3.333   0.049  1.00  0.00    -0.185 NA
ATOM     22  N   UNL     1      -3.871   5.470   0.065  1.00  0.00    -0.055 NA
ATOM     23  C   UNL     1      -4.586   4.374   0.066  1.00  0.00     0.228 A 
BRANCH  23  24
ATOM     24  C   UNL     1      -6.068   4.292   0.079  1.00  0.00     0.199 A 
ATOM     25  N   UNL     1      -6.832   3.222   0.075  1.00  0.00    -0.044 NA
ATOM     26  C   UNL     1      -7.058   5.393   0.094  1.00  0.00     0.199 A 
ATOM     27  O   UNL     1      -7.993   3.559   0.093  1.00  0.00    -0.242 OA
ATOM     28  N   UNL     1      -8.201   4.749   0.101  1.00  0.00    -0.032 NA
BRANCH  26  29
ATOM     29  N   UNL     1      -6.832   6.764   0.099  1.00  0.00    -0.379 N 
ATOM     30  H   UNL     1      -5.833   7.016   0.090  1.00  0.00     0.158 HD
ATOM     31  H   UNL     1      -7.572   7.480   0.109  1.00  0.00     0.158 HD
ENDBRANCH  26  29
ENDBRANCH  23  24
ENDBRANCH   5  19
TORSDOF 7
