REMARK SMILES CCC1(N(CCO)C(=O)c2ccccc2CC[C@H](O)Cc2ccc(Cl)cc2C(=O)N(CCO)C(C)(C)c2ccccc2)CCCC1
REMARK SMILES IDX 17 1 16 2 15 3 10 4 11 5 14 6 12 7 13 8 8 9 9 10 4 11 3 12
REMARK SMILES IDX 46 13 43 14 45 15 44 16 2 17 1 18 5 19 6 20 7 21 18 23 20 24
REMARK SMILES IDX 21 25 27 26 22 27 26 28 23 29 24 30 25 31 28 32 29 33 30 34
REMARK SMILES IDX 31 35 32 36 33 37 34 39 35 40 36 41 37 42 42 43 38 44 41 45
REMARK SMILES IDX 39 46 40 47 19 48
REMARK H PARENT 7 22 33 38 19 49
REMARK Flexibility Score: inf
ROOT
ATOM      1  C   UNL     1      -0.954  -2.421  -7.681  1.00  0.00     0.037 C 
ENDROOT
BRANCH   1   2
ATOM      2  C   UNL     1       0.506  -2.801  -7.429  1.00  0.00     0.039 C 
BRANCH   2   3
ATOM      3  C   UNL     1       0.648  -4.301  -7.464  1.00  0.00    -0.035 A 
ATOM      4  C   UNL     1       0.716  -4.969  -8.687  1.00  0.00     0.043 A 
ATOM      5  C   UNL     1       0.847  -6.359  -8.710  1.00  0.00     0.014 A 
ATOM      6  C   UNL     1       0.711  -5.016  -6.286  1.00  0.00     0.004 A 
ATOM      7  C   UNL     1       0.908  -7.062  -7.525  1.00  0.00     0.001 A 
ATOM      8  C   UNL     1       0.840  -6.394  -6.316  1.00  0.00     0.000 A 
BRANCH   4   9
ATOM      9  C   UNL     1       0.643  -4.209  -9.953  1.00  0.00     0.254 C 
ATOM     10  O   UNL     1       0.930  -3.028  -9.970  1.00  0.00    -0.269 OA
BRANCH   9  11
ATOM     11  N   UNL     1       0.259  -4.826 -11.088  1.00  0.00    -0.331 N 
BRANCH  11  12
ATOM     12  C   UNL     1      -0.256  -4.038 -12.211  1.00  0.00     0.043 C 
ATOM     13  C   UNL     1       0.840  -3.105 -12.764  1.00  0.00     0.028 C 
ATOM     14  C   UNL     1      -0.610  -4.962 -13.403  1.00  0.00     0.028 C 
ATOM     15  C   UNL     1       1.494  -3.846 -13.944  1.00  0.00     0.002 C 
ATOM     16  C   UNL     1       0.773  -5.204 -14.066  1.00  0.00     0.002 C 
BRANCH  12  17
ATOM     17  C   UNL     1      -1.481  -3.229 -11.779  1.00  0.00     0.025 C 
ATOM     18  C   UNL     1      -2.612  -4.184 -11.391  1.00  0.00     0.006 C 
ENDBRANCH  12  17
ENDBRANCH  11  12
BRANCH  11  19
ATOM     19  C   UNL     1       0.356  -6.283 -11.199  1.00  0.00     0.148 C 
BRANCH  19  20
ATOM     20  C   UNL     1      -0.728  -6.934 -10.337  1.00  0.00     0.177 C 
BRANCH  20  21
ATOM     21  O   UNL     1      -1.970  -6.918 -11.042  1.00  0.00    -0.395 OA
ATOM     22  H   UNL     1      -1.877  -7.421 -11.889  1.00  0.00     0.210 HD
ENDBRANCH  20  21
ENDBRANCH  19  20
ENDBRANCH  11  19
ENDBRANCH   9  11
ENDBRANCH   4   9
ENDBRANCH   2   3
ENDBRANCH   1   2
BRANCH   1  23
ATOM     23  C   UNL     1      -1.505  -1.677  -6.462  1.00  0.00     0.119 C 
BRANCH  23  24
ATOM     24  C   UNL     1      -2.956  -1.270  -6.726  1.00  0.00     0.068 C 
BRANCH  24  25
ATOM     25  C   UNL     1      -3.817  -1.696  -5.565  1.00  0.00    -0.033 A 
ATOM     26  C   UNL     1      -3.922  -0.882  -4.436  1.00  0.00     0.044 A 
ATOM     27  C   UNL     1      -4.506  -2.890  -5.618  1.00  0.00     0.006 A 
ATOM     28  C   UNL     1      -4.721  -1.285  -3.365  1.00  0.00     0.034 A 
ATOM     29  C   UNL     1      -5.293  -3.287  -4.551  1.00  0.00     0.021 A 
ATOM     30  C   UNL     1      -5.402  -2.484  -3.428  1.00  0.00     0.041 A 
ATOM     31  Cl  UNL     1      -6.396  -2.987  -2.097  1.00  0.00    -0.084 Cl
BRANCH  26  32
ATOM     32  C   UNL     1      -3.190   0.401  -4.376  1.00  0.00     0.254 C 
ATOM     33  O   UNL     1      -1.991   0.407  -4.176  1.00  0.00    -0.269 OA
BRANCH  32  34
ATOM     34  N   UNL     1      -3.852   1.563  -4.542  1.00  0.00    -0.327 N 
BRANCH  34  35
ATOM     35  C   UNL     1      -5.314   1.567  -4.630  1.00  0.00     0.149 C 
BRANCH  35  36
ATOM     36  C   UNL     1      -5.909   1.718  -3.228  1.00  0.00     0.177 C 
BRANCH  36  37
ATOM     37  O   UNL     1      -5.545   2.992  -2.692  1.00  0.00    -0.395 OA
ATOM     38  H   UNL     1      -5.895   3.710  -3.278  1.00  0.00     0.210 HD
ENDBRANCH  36  37
ENDBRANCH  35  36
ENDBRANCH  34  35
BRANCH  34  39
ATOM     39  C   UNL     1      -3.109   2.822  -4.635  1.00  0.00     0.063 C 
ATOM     40  C   UNL     1      -1.985   2.676  -5.663  1.00  0.00     0.040 C 
ATOM     41  C   UNL     1      -4.056   3.942  -5.070  1.00  0.00     0.040 C 
BRANCH  39  42
ATOM     42  C   UNL     1      -2.518   3.158  -3.290  1.00  0.00    -0.023 A 
ATOM     43  C   UNL     1      -1.983   4.412  -3.064  1.00  0.00     0.006 A 
ATOM     44  C   UNL     1      -2.517   2.213  -2.281  1.00  0.00     0.006 A 
ATOM     45  C   UNL     1      -1.442   4.720  -1.829  1.00  0.00     0.000 A 
ATOM     46  C   UNL     1      -1.970   2.519  -1.048  1.00  0.00     0.000 A 
ATOM     47  C   UNL     1      -1.435   3.773  -0.822  1.00  0.00     0.000 A 
ENDBRANCH  39  42
ENDBRANCH  34  39
ENDBRANCH  32  34
ENDBRANCH  26  32
ENDBRANCH  24  25
ENDBRANCH  23  24
BRANCH  23  48
ATOM     48  O   UNL     1      -1.451  -2.532  -5.318  1.00  0.00    -0.393 OA
ATOM     49  H   UNL     1      -0.512  -2.796  -5.146  1.00  0.00     0.210 HD
ENDBRANCH  23  48
ENDBRANCH   1  23
TORSDOF 20
