REMARK SMILES O=C(Cc1cccc2ccccc12)NC(=S)[N-]c1ccc(S(=O)(=O)NCCc2ccccc2)cc1
REMARK SMILES IDX 21 1 20 2 19 3 18 4 35 5 34 6 22 7 23 8 24 9 25 10 26 12
REMARK SMILES IDX 27 13 28 14 31 15 32 16 30 17 33 18 29 19 17 20 15 21 16 22
REMARK SMILES IDX 14 23 2 24 1 26 3 27 4 28 13 29 5 30 8 31 12 32 6 33 7 34
REMARK SMILES IDX 9 35 11 36 10 37
REMARK H PARENT 25 11 14 25
REMARK Flexibility Score: inf
ROOT
ATOM      1  C   UNL     1      -2.000   1.343   4.333  1.00  0.00     0.082 A 
ATOM      2  C   UNL     1      -3.026   2.058   3.744  1.00  0.00     0.022 A 
ATOM      3  C   UNL     1      -4.340   1.766   4.055  1.00  0.00     0.005 A 
ATOM      4  C   UNL     1      -4.629   0.760   4.968  1.00  0.00    -0.041 A 
ATOM      5  C   UNL     1      -3.595   0.047   5.561  1.00  0.00     0.005 A 
ATOM      6  C   UNL     1      -2.284   0.341   5.242  1.00  0.00     0.022 A 
ENDROOT
BRANCH   1   7
ATOM      7  S   UNL     1      -0.325   1.715   3.930  1.00  0.00     0.240 S 
ATOM      8  O   UNL     1       0.464   1.277   5.028  1.00  0.00    -0.207 OA
ATOM      9  O   UNL     1      -0.307   3.058   3.467  1.00  0.00    -0.207 OA
BRANCH   7  10
ATOM     10  N   UNL     1       0.090   0.764   2.639  1.00  0.00    -0.211 NA
ATOM     11  H   UNL     1       0.816   0.040   2.745  1.00  0.00     0.141 HD
BRANCH  10  12
ATOM     12  C   UNL     1      -0.574   0.952   1.347  1.00  0.00     0.103 C 
BRANCH  12  13
ATOM     13  C   UNL     1       0.225   0.237   0.255  1.00  0.00     0.052 C 
BRANCH  13  14
ATOM     14  C   UNL     1      -0.459   0.431  -1.075  1.00  0.00    -0.047 A 
ATOM     15  C   UNL     1      -1.712   0.785  -3.513  1.00  0.00     0.000 A 
ATOM     16  C   UNL     1      -2.037  -0.299  -2.720  1.00  0.00     0.000 A 
ATOM     17  C   UNL     1      -0.759   1.692  -3.087  1.00  0.00     0.000 A 
ATOM     18  C   UNL     1      -1.407  -0.479  -1.503  1.00  0.00     0.004 A 
ATOM     19  C   UNL     1      -0.133   1.515  -1.868  1.00  0.00     0.004 A 
ENDBRANCH  13  14
ENDBRANCH  12  13
ENDBRANCH  10  12
ENDBRANCH   7  10
ENDBRANCH   1   7
BRANCH   4  20
ATOM     20  N   UNL     1      -5.958   0.465   5.288  1.00  0.00    -0.427 NA
BRANCH  20  21
ATOM     21  C   UNL     1      -6.305   0.221   6.567  1.00  0.00     0.009 C 
ATOM     22  S   UNL     1      -5.151   0.409   7.818  1.00  0.00    -0.090 S 
BRANCH  21  23
ATOM     23  N   UNL     1      -7.560  -0.172   6.862  1.00  0.00    -0.419 N 
ATOM     24  C   UNL     1      -7.907  -0.417   8.141  1.00  0.00     0.149 C 
ATOM     25  H   UNL     1      -8.254  -0.286   6.109  1.00  0.00     0.029 HD
ATOM     26  O   UNL     1      -7.089  -0.283   9.027  1.00  0.00    -0.299 OA
BRANCH  24  27
ATOM     27  C   UNL     1      -9.310  -0.857   8.471  1.00  0.00     0.112 C 
BRANCH  27  28
ATOM     28  C   UNL     1      -9.436  -1.061   9.958  1.00  0.00    -0.033 A 
ATOM     29  C   UNL     1      -9.719   0.028  10.800  1.00  0.00    -0.015 A 
ATOM     30  C   UNL     1      -9.270  -2.302  10.495  1.00  0.00     0.005 A 
ATOM     31  C   UNL     1      -9.838  -0.186  12.196  1.00  0.00    -0.018 A 
ATOM     32  C   UNL     1      -9.900   1.322  10.283  1.00  0.00     0.009 A 
ATOM     33  C   UNL     1      -9.383  -2.510  11.868  1.00  0.00     0.001 A 
ATOM     34  C   UNL     1      -9.661  -1.480  12.713  1.00  0.00     0.009 A 
ATOM     35  C   UNL     1     -10.127   0.903  13.037  1.00  0.00     0.009 A 
ATOM     36  C   UNL     1     -10.180   2.351  11.127  1.00  0.00     0.001 A 
ATOM     37  C   UNL     1     -10.293   2.143  12.501  1.00  0.00     0.001 A 
ENDBRANCH  27  28
ENDBRANCH  24  27
ENDBRANCH  21  23
ENDBRANCH  20  21
ENDBRANCH   4  20
TORSDOF 10
