REMARK SMILES O=C/C(=C/Nc1ccc/c(=[NH+]/C=C(/C=O)c2nc3cc(Cl)ccc3o2)[nH]1)c1nc2cc(Cl)ccc2o1
REMARK SMILES IDX 8 1 7 2 6 3 26 4 10 5 11 6 9 7 5 10 4 12 3 13 2 14 1 15
REMARK SMILES IDX 27 16 36 17 28 18 35 19 29 20 34 21 30 22 33 23 31 24 32 25
REMARK SMILES IDX 12 26 13 27 14 28 15 29 16 30 25 31 17 32 24 33 18 34 23 35
REMARK SMILES IDX 19 36 22 37 20 38 21 39
REMARK H PARENT 26 8 11 9 5 11
REMARK Flexibility Score: inf
ROOT
ATOM      1  C   UNL     1      -6.540  -3.603   0.673  1.00  0.00     0.015 A 
ATOM      2  C   UNL     1      -5.163  -3.570   0.474  1.00  0.00     0.072 A 
ATOM      3  C   UNL     1      -4.510  -2.357   0.386  1.00  0.00     0.196 A 
ATOM      4  N   UNL     1      -5.202  -1.192   0.496  1.00  0.00    -0.226 N 
ATOM      5  C   UNL     1      -6.556  -1.203   0.687  1.00  0.00     0.278 A 
ATOM      6  N   UNL     1      -7.228  -0.044   0.790  1.00  0.00    -0.247 N 
ATOM      7  C   UNL     1      -7.239  -2.415   0.780  1.00  0.00     0.099 A 
ATOM      8  H   UNL     1      -4.703  -0.293   0.436  1.00  0.00     0.314 HD
ATOM      9  H   UNL     1      -8.231  -0.049   1.024  1.00  0.00     0.312 HD
ENDROOT
BRANCH   3  10
ATOM     10  N   UNL     1      -3.146  -2.327   0.189  1.00  0.00    -0.328 N 
ATOM     11  H   UNL     1      -2.667  -1.427   0.038  1.00  0.00     0.170 HD
BRANCH  10  12
ATOM     12  C   UNL     1      -2.432  -3.485   0.194  1.00  0.00     0.103 C 
ATOM     13  C   UNL     1      -1.055  -3.447   0.115  1.00  0.00     0.093 C 
BRANCH  13  14
ATOM     14  C   UNL     1      -0.320  -4.650  -0.025  1.00  0.00     0.267 C 
ATOM     15  O   UNL     1       0.891  -4.617  -0.095  1.00  0.00    -0.298 OA
ENDBRANCH  13  14
BRANCH  13  16
ATOM     16  C   UNL     1      -0.348  -2.155   0.175  1.00  0.00     0.232 A 
ATOM     17  O   UNL     1      -0.946  -0.949   0.212  1.00  0.00    -0.436 OA
ATOM     18  N   UNL     1       0.955  -2.011   0.200  1.00  0.00    -0.209 NA
ATOM     19  C   UNL     1       0.019  -0.002   0.262  1.00  0.00     0.155 A 
ATOM     20  C   UNL     1       1.246  -0.685   0.255  1.00  0.00     0.111 A 
ATOM     21  C   UNL     1       0.000   1.382   0.315  1.00  0.00     0.051 A 
ATOM     22  C   UNL     1       2.439   0.039   0.299  1.00  0.00     0.053 A 
ATOM     23  C   UNL     1       1.187   2.085   0.359  1.00  0.00     0.024 A 
ATOM     24  C   UNL     1       2.402   1.416   0.350  1.00  0.00     0.043 A 
ATOM     25  Cl  UNL     1       3.885   2.317   0.405  1.00  0.00    -0.084 Cl
ENDBRANCH  13  16
ENDBRANCH  10  12
ENDBRANCH   3  10
BRANCH   6  26
ATOM     26  C   UNL     1      -6.603   1.102   0.590  1.00  0.00     0.214 C 
ATOM     27  C   UNL     1      -7.274   2.315   0.809  1.00  0.00     0.116 C 
BRANCH  27  28
ATOM     28  C   UNL     1      -6.609   3.533   0.596  1.00  0.00     0.269 C 
ATOM     29  O   UNL     1      -7.190   4.584   0.786  1.00  0.00    -0.298 OA
ENDBRANCH  27  28
BRANCH  27  30
ATOM     30  C   UNL     1      -8.672   2.310   1.260  1.00  0.00     0.234 A 
ATOM     31  O   UNL     1      -9.411   3.410   1.501  1.00  0.00    -0.436 OA
ATOM     32  N   UNL     1      -9.389   1.232   1.484  1.00  0.00    -0.209 NA
ATOM     33  C   UNL     1     -10.643   3.013   1.897  1.00  0.00     0.155 A 
ATOM     34  C   UNL     1     -10.629   1.609   1.889  1.00  0.00     0.111 A 
ATOM     35  C   UNL     1     -11.793   3.689   2.268  1.00  0.00     0.051 A 
ATOM     36  C   UNL     1     -11.778   0.904   2.257  1.00  0.00     0.053 A 
ATOM     37  C   UNL     1     -12.921   2.981   2.630  1.00  0.00     0.024 A 
ATOM     38  C   UNL     1     -12.914   1.593   2.625  1.00  0.00     0.043 A 
ATOM     39  Cl  UNL     1     -14.342   0.720   3.083  1.00  0.00    -0.084 Cl
ENDBRANCH  27  30
ENDBRANCH   6  26
TORSDOF 7
