REMARK SMILES Nc1nonc1-c1nc2ccccc2n1CC(=O)Nc1cc([C@]23C[C@H]4C[C@H](C[C@H](C4)C2)C3)ccc1Br
REMARK SMILES IDX 16 1 15 2 11 3 10 4 12 5 9 6 13 7 14 8 8 9 7 10 6 11 5 12
REMARK SMILES IDX 2 13 4 14 3 15 1 16 17 19 18 20 19 21 20 23 35 24 21 25
REMARK SMILES IDX 34 26 36 27 22 28 33 29 23 30 24 31 31 32 32 33 25 34 29 35
REMARK SMILES IDX 27 36 26 37 30 38 28 39
REMARK H PARENT 1 17 1 18 19 22
REMARK Flexibility Score: inf
ROOT
ATOM      1  C   UNL     1      -3.924   4.353   0.111  1.00  0.00     0.224 C 
ENDROOT
BRANCH   1   2
ATOM      2  N   UNL     1      -2.779   5.266   0.167  1.00  0.00    -0.313 N 
ATOM      3  C   UNL     1       1.307   4.910  -0.252  1.00  0.00     0.002 A 
ATOM      4  C   UNL     1       0.672   6.091   0.005  1.00  0.00     0.030 A 
ATOM      5  C   UNL     1       0.586   3.733  -0.390  1.00  0.00     0.002 A 
ATOM      6  C   UNL     1      -0.721   6.120   0.132  1.00  0.00     0.089 A 
ATOM      7  C   UNL     1      -0.788   3.737  -0.274  1.00  0.00     0.028 A 
ATOM      8  C   UNL     1      -1.453   4.927  -0.008  1.00  0.00     0.069 A 
ATOM      9  N   UNL     1      -1.613   7.109   0.379  1.00  0.00    -0.226 NA
ATOM     10  C   UNL     1      -2.825   6.613   0.401  1.00  0.00     0.167 A 
BRANCH  10  11
ATOM     11  C   UNL     1      -4.059   7.393   0.643  1.00  0.00     0.194 A 
ATOM     12  N   UNL     1      -5.306   6.972   0.681  1.00  0.00    -0.044 NA
ATOM     13  C   UNL     1      -4.203   8.844   0.909  1.00  0.00     0.199 A 
ATOM     14  O   UNL     1      -6.037   7.908   0.906  1.00  0.00    -0.242 OA
ATOM     15  N   UNL     1      -5.501   8.982   1.042  1.00  0.00    -0.032 NA
BRANCH  13  16
ATOM     16  N   UNL     1      -3.212   9.813   0.995  1.00  0.00    -0.379 N 
ATOM     17  H   UNL     1      -2.262   9.444   0.849  1.00  0.00     0.158 HD
ATOM     18  H   UNL     1      -3.383  10.811   1.185  1.00  0.00     0.158 HD
ENDBRANCH  13  16
ENDBRANCH  10  11
ENDBRANCH   1   2
BRANCH   1  19
ATOM     19  C   UNL     1      -4.439   4.279  -1.304  1.00  0.00     0.244 C 
ATOM     20  O   UNL     1      -3.902   4.925  -2.179  1.00  0.00    -0.273 OA
ATOM     21  N   UNL     1      -5.495   3.495  -1.597  1.00  0.00    -0.323 N 
ATOM     22  H   UNL     1      -5.907   2.894  -0.869  1.00  0.00     0.170 HD
BRANCH  21  23
ATOM     23  C   UNL     1      -6.032   3.498  -2.889  1.00  0.00     0.055 A 
ATOM     24  C   UNL     1      -7.400   3.347  -3.075  1.00  0.00     0.041 A 
ATOM     25  C   UNL     1      -5.199   3.658  -3.988  1.00  0.00     0.031 A 
ATOM     26  C   UNL     1      -7.927   3.350  -4.353  1.00  0.00     0.018 A 
ATOM     27  Br  UNL     1      -8.541   3.135  -1.582  1.00  0.00    -0.049 Br
ATOM     28  C   UNL     1      -5.731   3.656  -5.263  1.00  0.00    -0.040 A 
ATOM     29  C   UNL     1      -7.093   3.505  -5.445  1.00  0.00     0.005 A 
BRANCH  28  30
ATOM     30  C   UNL     1      -4.826   3.824  -6.456  1.00  0.00    -0.004 C 
ATOM     31  C   UNL     1      -5.661   3.792  -7.738  1.00  0.00     0.015 C 
ATOM     32  C   UNL     1      -3.803   2.687  -6.485  1.00  0.00     0.015 C 
ATOM     33  C   UNL     1      -4.095   5.165  -6.357  1.00  0.00     0.015 C 
ATOM     34  C   UNL     1      -4.743   3.963  -8.950  1.00  0.00    -0.010 C 
ATOM     35  C   UNL     1      -2.885   2.858  -7.697  1.00  0.00    -0.010 C 
ATOM     36  C   UNL     1      -3.177   5.336  -7.569  1.00  0.00    -0.010 C 
ATOM     37  C   UNL     1      -4.012   5.303  -8.851  1.00  0.00     0.007 C 
ATOM     38  C   UNL     1      -3.720   2.825  -8.978  1.00  0.00     0.007 C 
ATOM     39  C   UNL     1      -2.154   4.198  -7.598  1.00  0.00     0.007 C 
ENDBRANCH  28  30
ENDBRANCH  21  23
ENDBRANCH   1  19
TORSDOF 6
