REMARK SMILES COc1ccc(C2=NN(c3nc4ccccc4s3)C(=O)/C2=C(/C)NCCc2c[nH]c3ccc(C)cc23)cc1
REMARK SMILES IDX 24 1 25 3 26 4 27 5 34 6 33 7 35 8 32 9 36 10 31 11 30 12
REMARK SMILES IDX 29 13 28 14 22 16 21 17 23 18 19 19 7 20 9 21 20 22 8 23
REMARK SMILES IDX 6 24 37 25 5 26 38 27 4 28 3 29 2 30 1 31 10 32 18 33 11 34
REMARK SMILES IDX 17 35 12 36 16 37 13 38 15 39 14 40
REMARK H PARENT 24 2 29 15
REMARK Flexibility Score: inf
ROOT
ATOM      1  N   UNL     1      -1.123   2.127  -0.146  1.00  0.00    -0.388 N 
ATOM      2  H   UNL     1      -1.177   3.128   0.093  1.00  0.00     0.160 HD
ENDROOT
BRANCH   1   3
ATOM      3  C   UNL     1      -2.351   1.339  -0.278  1.00  0.00     0.117 C 
BRANCH   3   4
ATOM      4  C   UNL     1      -3.563   2.233  -0.013  1.00  0.00     0.059 C 
BRANCH   4   5
ATOM      5  C   UNL     1      -4.826   1.422  -0.149  1.00  0.00    -0.021 A 
ATOM      6  C   UNL     1      -5.601  -0.828   4.379  1.00  0.00     0.044 C 
ATOM      7  C   UNL     1      -5.942  -0.517   2.944  1.00  0.00    -0.050 A 
ATOM      8  C   UNL     1      -5.133   0.311   2.219  1.00  0.00     0.014 A 
ATOM      9  C   UNL     1      -7.077  -1.075   2.370  1.00  0.00     0.005 A 
ATOM     10  C   UNL     1      -5.450   0.600   0.890  1.00  0.00     0.003 A 
ATOM     11  C   UNL     1      -7.408  -0.803   1.061  1.00  0.00     0.027 A 
ATOM     12  C   UNL     1      -6.598   0.038   0.304  1.00  0.00     0.046 A 
ATOM     13  N   UNL     1      -6.655   0.492  -0.994  1.00  0.00    -0.361 N 
ATOM     14  C   UNL     1      -5.595   1.320  -1.245  1.00  0.00     0.087 A 
ATOM     15  H   UNL     1      -7.388   0.246  -1.676  1.00  0.00     0.166 HD
ENDBRANCH   4   5
ENDBRANCH   3   4
ENDBRANCH   1   3
BRANCH   1  16
ATOM     16  C   UNL     1       0.078   1.543  -0.337  1.00  0.00     0.023 C 
ATOM     17  C   UNL     1       1.236   2.289  -0.217  1.00  0.00     0.089 C 
ATOM     18  C   UNL     1       0.157   0.080  -0.686  1.00  0.00     0.065 C 
ATOM     19  C   UNL     1       1.338   3.696  -0.037  1.00  0.00     0.284 C 
ATOM     20  C   UNL     1       2.626   1.792  -0.256  1.00  0.00     0.106 C 
ATOM     21  N   UNL     1       2.650   3.991   0.032  1.00  0.00    -0.167 N 
ATOM     22  O   UNL     1       0.412   4.486   0.042  1.00  0.00    -0.266 OA
ATOM     23  N   UNL     1       3.410   2.828  -0.106  1.00  0.00    -0.161 NA
BRANCH  20  24
ATOM     24  C   UNL     1       3.052   0.384  -0.432  1.00  0.00     0.003 A 
ATOM     25  C   UNL     1       3.809   0.017  -1.545  1.00  0.00     0.014 A 
ATOM     26  C   UNL     1       2.703  -0.576   0.517  1.00  0.00     0.014 A 
ATOM     27  C   UNL     1       4.205  -1.294  -1.706  1.00  0.00     0.047 A 
ATOM     28  C   UNL     1       3.096  -1.886   0.347  1.00  0.00     0.047 A 
ATOM     29  C   UNL     1       3.850  -2.248  -0.761  1.00  0.00     0.118 A 
BRANCH  29  30
ATOM     30  O   UNL     1       4.241  -3.539  -0.923  1.00  0.00    -0.497 OA
ATOM     31  C   UNL     1       3.842  -4.469   0.086  1.00  0.00     0.278 C 
ENDBRANCH  29  30
ENDBRANCH  20  24
BRANCH  21  32
ATOM     32  C   UNL     1       3.170   5.264   0.208  1.00  0.00     0.214 A 
ATOM     33  S   UNL     1       2.301   6.816   0.387  1.00  0.00    -0.095 S 
ATOM     34  N   UNL     1       4.427   5.638   0.280  1.00  0.00    -0.218 NA
ATOM     35  C   UNL     1       3.732   7.855   0.557  1.00  0.00     0.056 A 
ATOM     36  C   UNL     1       4.793   6.926   0.455  1.00  0.00     0.084 A 
ATOM     37  C   UNL     1       3.941   9.200   0.736  1.00  0.00     0.021 A 
ATOM     38  C   UNL     1       6.100   7.457   0.548  1.00  0.00     0.030 A 
ATOM     39  C   UNL     1       5.233   9.685   0.822  1.00  0.00     0.002 A 
ATOM     40  C   UNL     1       6.298   8.801   0.727  1.00  0.00     0.002 A 
ENDBRANCH  21  32
ENDBRANCH   1  16
TORSDOF 7
