REMARK SMILES CCCCC(=O)N1C[C@@H](O)[C@@H](Cc2ccccc2)N(Cc2ccc(O)cc2)C(=O)N1Cc1ccc(O)cc1
REMARK SMILES IDX 30 1 7 2 5 3 6 4 4 5 3 6 2 7 1 8 8 9 9 10 10 12 28 14 29 15
REMARK SMILES IDX 19 16 11 17 12 19 13 20 18 21 14 22 17 23 15 24 16 25 20 26
REMARK SMILES IDX 21 27 27 28 22 29 26 30 23 31 24 32 25 33 31 35 32 36 38 37
REMARK SMILES IDX 33 38 37 39 34 40 35 41 36 42
REMARK H PARENT 10 13 25 34 36 43
REMARK Flexibility Score: 90.00
ROOT
ATOM      1  N   UNL     1       5.323   2.640  -0.721  1.00  0.00    -0.228 N 
ENDROOT
BRANCH   1   2
ATOM      2  N   UNL     1       5.013   1.675   0.251  1.00  0.00    -0.247 N 
BRANCH   2   3
ATOM      3  C   UNL     1       4.629   2.056   1.485  1.00  0.00     0.241 C 
ATOM      4  O   UNL     1       4.362   1.220   2.323  1.00  0.00    -0.273 OA
BRANCH   3   5
ATOM      5  C   UNL     1       4.529   3.521   1.825  1.00  0.00     0.102 C 
BRANCH   5   6
ATOM      6  C   UNL     1       4.075   3.678   3.277  1.00  0.00     0.010 C 
BRANCH   6   7
ATOM      7  C   UNL     1       3.975   5.165   3.622  1.00  0.00    -0.003 C 
ATOM      8  C   UNL     1       3.520   5.322   5.074  1.00  0.00     0.004 C 
ENDBRANCH   6   7
ENDBRANCH   5   6
ENDBRANCH   3   5
ENDBRANCH   2   3
BRANCH   2   9
ATOM      9  C   UNL     1       5.109   0.265  -0.079  1.00  0.00     0.180 C 
BRANCH   9  10
ATOM     10  C   UNL     1       4.310  -0.104  -1.322  1.00  0.00     0.159 CG0
ATOM     11  G   UNL     1       3.081   0.814  -1.410  1.00  0.00     0.000 G0
BRANCH  10  12
ATOM     12  O   UNL     1       3.886  -1.466  -1.232  1.00  0.00    -0.389 OA
ATOM     13  H   UNL     1       3.319  -1.583  -0.429  1.00  0.00     0.211 HD
ENDBRANCH  10  12
ENDBRANCH   9  10
ENDBRANCH   2   9
ENDBRANCH   1   2
BRANCH   1  14
ATOM     14  C   UNL     1       4.483   2.832  -1.760  1.00  0.00     0.339 C 
ATOM     15  O   UNL     1       4.712   3.769  -2.500  1.00  0.00    -0.246 OA
BRANCH  14  16
ATOM     16  N   UNL     1       3.436   2.083  -2.035  1.00  0.00    -0.313 N 
BRANCH  16  17
ATOM     17  C   UNL     1       3.081   0.814  -1.410  1.00  0.00     0.122 CG0
ATOM     18  G   UNL     1       4.310  -0.104  -1.322  1.00  0.00     0.000 G0
BRANCH  17  19
ATOM     19  C   UNL     1       2.544   1.077  -0.001  1.00  0.00     0.063 C 
BRANCH  19  20
ATOM     20  C   UNL     1       1.436   0.101   0.304  1.00  0.00    -0.046 A 
ATOM     21  C   UNL     1       0.136   0.396  -0.060  1.00  0.00     0.004 A 
ATOM     22  C   UNL     1       1.721  -1.088   0.950  1.00  0.00     0.004 A 
ATOM     23  C   UNL     1      -0.880  -0.499   0.219  1.00  0.00     0.000 A 
ATOM     24  C   UNL     1       0.706  -1.985   1.225  1.00  0.00     0.000 A 
ATOM     25  C   UNL     1      -0.595  -1.689   0.864  1.00  0.00     0.000 A 
ENDBRANCH  19  20
ENDBRANCH  17  19
ENDBRANCH  16  17
BRANCH  16  26
ATOM     26  C   UNL     1       2.532   2.577  -3.077  1.00  0.00     0.157 C 
BRANCH  26  27
ATOM     27  C   UNL     1       1.548   3.545  -2.471  1.00  0.00    -0.028 A 
ATOM     28  C   UNL     1       1.901   4.871  -2.302  1.00  0.00     0.009 A 
ATOM     29  C   UNL     1       0.293   3.107  -2.092  1.00  0.00     0.009 A 
ATOM     30  C   UNL     1       1.001   5.761  -1.747  1.00  0.00     0.046 A 
ATOM     31  C   UNL     1      -0.608   3.992  -1.532  1.00  0.00     0.046 A 
ATOM     32  C   UNL     1      -0.257   5.323  -1.360  1.00  0.00     0.115 A 
BRANCH  32  33
ATOM     33  O   UNL     1      -1.143   6.196  -0.814  1.00  0.00    -0.508 OA
ATOM     34  H   UNL     1      -1.384   5.801   0.061  1.00  0.00     0.293 HD
ENDBRANCH  32  33
ENDBRANCH  26  27
ENDBRANCH  16  26
ENDBRANCH  14  16
ENDBRANCH   1  14
BRANCH   1  35
ATOM     35  C   UNL     1       6.549   3.434  -0.608  1.00  0.00     0.183 C 
BRANCH  35  36
ATOM     36  C   UNL     1       7.641   2.789  -1.421  1.00  0.00    -0.026 A 
ATOM     37  C   UNL     1       7.813   3.139  -2.747  1.00  0.00     0.009 A 
ATOM     38  C   UNL     1       8.475   1.853  -0.837  1.00  0.00     0.009 A 
ATOM     39  C   UNL     1       8.814   2.550  -3.495  1.00  0.00     0.046 A 
ATOM     40  C   UNL     1       9.474   1.256  -1.582  1.00  0.00     0.046 A 
ATOM     41  C   UNL     1       9.648   1.606  -2.913  1.00  0.00     0.115 A 
BRANCH  41  42
ATOM     42  O   UNL     1      10.634   1.025  -3.646  1.00  0.00    -0.508 OA
ATOM     43  H   UNL     1      10.463   0.053  -3.578  1.00  0.00     0.293 HD
ENDBRANCH  41  42
ENDBRANCH  35  36
ENDBRANCH   1  35
TORSDOF 13
