REMARK SMILES C[C@H](NC(=O)COC(=O)CNC(=O)C[C@]12C[C@H]3C[C@H](C[C@H](C3)C1)C2)[C@H](c1ccccc1)[NH+]1CCCC1
REMARK SMILES IDX 7 1 6 2 4 3 3 4 5 6 2 7 1 8 25 9 26 10 31 11 27 12 30 13
REMARK SMILES IDX 28 14 29 15 32 16 36 17 33 18 35 20 34 21 8 22 9 23 10 24
REMARK SMILES IDX 11 25 12 26 13 28 14 29 15 30 16 31 23 32 24 33 17 34 21 35
REMARK SMILES IDX 19 36 18 37 22 38 20 39
REMARK H PARENT 3 5 32 19 11 27
REMARK Flexibility Score: inf
ROOT
ATOM      1  O   UNL     1      -8.690   0.779   5.291  1.00  0.00    -0.454 OA
ENDROOT
BRANCH   1   2
ATOM      2  C   UNL     1     -10.044   0.672   4.776  1.00  0.00     0.332 C 
BRANCH   2   3
ATOM      3  C   UNL     1     -11.025   0.983   5.877  1.00  0.00     0.258 C 
ATOM      4  N   UNL     1     -12.350   0.946   5.628  1.00  0.00    -0.344 N 
ATOM      5  H   UNL     1     -12.691   0.706   4.687  1.00  0.00     0.164 HD
ATOM      6  O   UNL     1     -10.624   1.266   6.985  1.00  0.00    -0.271 OA
BRANCH   4   7
ATOM      7  C   UNL     1     -13.304   1.248   6.698  1.00  0.00     0.142 C 
ATOM      8  C   UNL     1     -13.608   2.748   6.702  1.00  0.00     0.038 C 
BRANCH   7   9
ATOM      9  C   UNL     1     -14.598   0.467   6.463  1.00  0.00     0.237 C 
BRANCH   9  10
ATOM     10  C   UNL     1     -15.574   0.765   7.571  1.00  0.00     0.011 A 
ATOM     11  C   UNL     1     -16.676   1.563   7.325  1.00  0.00     0.010 A 
ATOM     12  C   UNL     1     -15.370   0.238   8.832  1.00  0.00     0.010 A 
ATOM     13  C   UNL     1     -17.572   1.837   8.342  1.00  0.00     0.001 A 
ATOM     14  C   UNL     1     -16.263   0.515   9.851  1.00  0.00     0.001 A 
ATOM     15  C   UNL     1     -17.365   1.313   9.605  1.00  0.00     0.000 A 
ENDBRANCH   9  10
BRANCH   9  16
ATOM     16  N   UNL     1     -14.304  -0.972   6.444  1.00  0.00    -0.327 N 
ATOM     17  C   UNL     1     -13.554  -1.344   5.225  1.00  0.00     0.263 C 
ATOM     18  C   UNL     1     -15.556  -1.771   6.407  1.00  0.00     0.263 C 
ATOM     19  H   UNL     1     -13.758  -1.167   7.295  1.00  0.00     0.348 HD
ATOM     20  C   UNL     1     -14.013  -2.759   4.825  1.00  0.00     0.067 C 
ATOM     21  C   UNL     1     -15.085  -3.145   5.870  1.00  0.00     0.067 C 
ENDBRANCH   9  16
ENDBRANCH   7   9
ENDBRANCH   4   7
ENDBRANCH   2   3
ENDBRANCH   1   2
BRANCH   1  22
ATOM     22  C   UNL     1      -7.690   0.531   4.431  1.00  0.00     0.325 C 
ATOM     23  O   UNL     1      -7.937   0.235   3.286  1.00  0.00    -0.250 OA
BRANCH  22  24
ATOM     24  C   UNL     1      -6.258   0.622   4.894  1.00  0.00     0.238 C 
BRANCH  24  25
ATOM     25  N   UNL     1      -5.364   0.309   3.777  1.00  0.00    -0.345 N 
ATOM     26  C   UNL     1      -4.028   0.328   3.958  1.00  0.00     0.221 C 
ATOM     27  H   UNL     1      -5.755   0.074   2.854  1.00  0.00     0.164 HD
ATOM     28  O   UNL     1      -3.567   0.604   5.045  1.00  0.00    -0.275 OA
BRANCH  26  29
ATOM     29  C   UNL     1      -3.107   0.005   2.809  1.00  0.00     0.107 C 
BRANCH  29  30
ATOM     30  C   UNL     1      -1.654   0.098   3.279  1.00  0.00    -0.020 C 
ATOM     31  C   UNL     1      -1.421  -0.900   4.415  1.00  0.00     0.011 C 
ATOM     32  C   UNL     1      -1.369   1.515   3.779  1.00  0.00     0.011 C 
ATOM     33  C   UNL     1      -0.720  -0.229   2.112  1.00  0.00     0.011 C 
ATOM     34  C   UNL     1       0.032  -0.808   4.884  1.00  0.00    -0.010 C 
ATOM     35  C   UNL     1       0.084   1.608   4.248  1.00  0.00    -0.010 C 
ATOM     36  C   UNL     1       0.734  -0.137   2.582  1.00  0.00    -0.010 C 
ATOM     37  C   UNL     1       0.967  -1.135   3.718  1.00  0.00     0.007 C 
ATOM     38  C   UNL     1       0.318   0.610   5.384  1.00  0.00     0.007 C 
ATOM     39  C   UNL     1       1.019   1.281   3.082  1.00  0.00     0.007 C 
ENDBRANCH  29  30
ENDBRANCH  26  29
ENDBRANCH  24  25
ENDBRANCH  22  24
ENDBRANCH   1  22
TORSDOF 11
