REMARK SMILES CCOc1ccc(-c2nnc(S[C@@H](C)C(=O)NCC3([NH+]4CCCCC4)CCCCC3)n2N)cc1
REMARK SMILES IDX 13 1 14 2 12 3 11 4 8 5 31 6 9 7 10 8 7 9 4 10 34 11 5 12
REMARK SMILES IDX 33 13 6 14 3 15 2 16 1 17 32 18 15 21 16 22 17 23 18 25
REMARK SMILES IDX 19 26 30 27 26 28 29 29 27 30 28 31 20 32 25 33 21 34 24 36
REMARK SMILES IDX 22 37 23 38
REMARK H PARENT 32 19 32 20 17 24 20 35
REMARK Flexibility Score: inf
ROOT
ATOM      1  C   UNL     1      -0.782   1.443   3.095  1.00  0.00     0.141 C 
ATOM      2  C   UNL     1      -0.095   0.945   1.822  1.00  0.00     0.030 C 
ENDROOT
BRANCH   1   3
ATOM      3  S   UNL     1      -0.395   3.193   3.344  1.00  0.00    -0.071 SA
BRANCH   3   4
ATOM      4  C   UNL     1      -1.192   3.886   1.934  1.00  0.00     0.210 A 
ATOM      5  C   UNL     1      -1.959   5.271   0.427  1.00  0.00     0.183 A 
ATOM      6  N   UNL     1      -1.232   5.209   1.594  1.00  0.00    -0.217 N 
ATOM      7  N   UNL     1      -2.309   4.042   0.127  1.00  0.00    -0.127 NA
ATOM      8  N   UNL     1      -1.854   3.227   1.010  1.00  0.00    -0.121 NA
BRANCH   5   9
ATOM      9  C   UNL     1      -2.283   6.490  -0.342  1.00  0.00     0.021 A 
ATOM     10  C   UNL     1      -2.891   8.776  -1.786  1.00  0.00     0.119 A 
ATOM     11  C   UNL     1      -3.607   7.607  -2.007  1.00  0.00     0.047 A 
ATOM     12  C   UNL     1      -1.871   8.803  -0.844  1.00  0.00     0.047 A 
ATOM     13  C   UNL     1      -3.304   6.466  -1.294  1.00  0.00     0.016 A 
ATOM     14  C   UNL     1      -1.566   7.668  -0.123  1.00  0.00     0.016 A 
BRANCH  10  15
ATOM     15  O   UNL     1      -3.188   9.897  -2.494  1.00  0.00    -0.494 OA
BRANCH  15  16
ATOM     16  C   UNL     1      -4.248   9.800  -3.447  1.00  0.00     0.226 C 
ATOM     17  C   UNL     1      -4.436  11.150  -4.141  1.00  0.00     0.049 C 
ENDBRANCH  15  16
ENDBRANCH  10  15
ENDBRANCH   5   9
BRANCH   6  18
ATOM     18  N   UNL     1      -0.669   6.253   2.272  1.00  0.00    -0.335 N 
ATOM     19  H   UNL     1      -0.817   7.178   1.843  1.00  0.00     0.178 HD
ATOM     20  H   UNL     1      -0.134   6.144   3.145  1.00  0.00     0.178 HD
ENDBRANCH   6  18
ENDBRANCH   3   4
ENDBRANCH   1   3
BRANCH   1  21
ATOM     21  C   UNL     1      -0.290   0.646   4.276  1.00  0.00     0.233 C 
ATOM     22  O   UNL     1       0.563   1.107   5.005  1.00  0.00    -0.274 OA
ATOM     23  N   UNL     1      -0.797  -0.578   4.521  1.00  0.00    -0.349 N 
ATOM     24  H   UNL     1      -1.521  -0.969   3.902  1.00  0.00     0.163 HD
BRANCH  23  25
ATOM     25  C   UNL     1      -0.318  -1.352   5.670  1.00  0.00     0.184 C 
BRANCH  25  26
ATOM     26  C   UNL     1      -0.892  -2.769   5.604  1.00  0.00     0.115 C 
ATOM     27  C   UNL     1      -0.568  -3.511   6.902  1.00  0.00     0.070 C 
ATOM     28  C   UNL     1      -2.410  -2.696   5.425  1.00  0.00     0.070 C 
ATOM     29  C   UNL     1      -1.186  -2.764   8.086  1.00  0.00     0.007 C 
ATOM     30  C   UNL     1      -3.029  -1.949   6.608  1.00  0.00     0.007 C 
ATOM     31  C   UNL     1      -2.704  -2.691   7.906  1.00  0.00     0.001 C 
BRANCH  26  32
ATOM     32  N   UNL     1      -0.299  -3.486   4.468  1.00  0.00    -0.329 N 
ATOM     33  C   UNL     1      -0.686  -2.867   3.195  1.00  0.00     0.262 C 
ATOM     34  C   UNL     1       1.162  -3.562   4.599  1.00  0.00     0.262 C 
ATOM     35  H   UNL     1      -0.665  -4.449   4.474  1.00  0.00     0.348 HD
ATOM     36  C   UNL     1      -0.172  -3.721   2.034  1.00  0.00     0.062 C 
ATOM     37  C   UNL     1       1.731  -4.438   3.480  1.00  0.00     0.062 C 
ATOM     38  C   UNL     1       1.352  -3.834   2.125  1.00  0.00     0.012 C 
ENDBRANCH  26  32
ENDBRANCH  25  26
ENDBRANCH  23  25
ENDBRANCH   1  21
TORSDOF 10
