REMARK SMILES CCCCNc1ccc2c(cc1=O)[C@H]([N@H+](C)Cc1ccccc1O)CCc1cc(OC)c(OC)c(OC)c1-2
REMARK SMILES IDX 6 1 7 2 8 3 9 4 10 5 11 6 12 7 13 8 5 9 4 11 3 12 2 13 1 14
REMARK SMILES IDX 14 15 25 16 15 18 16 19 17 21 18 22 23 23 19 24 22 25 20 26
REMARK SMILES IDX 21 27 24 28 38 30 27 31 35 32 28 33 32 34 29 35 26 36 36 38
REMARK SMILES IDX 37 39 33 40 34 41 30 42 31 43
REMARK H PARENT 5 10 15 20 24 29
REMARK Flexibility Score: 90.00
ROOT
ATOM      1  C   UNL     1       4.412   7.845   1.446  1.00  0.00     0.082 A 
ATOM      2  C   UNL     1       3.897   9.104   1.532  1.00  0.00     0.030 A 
ATOM      3  C   UNL     1       2.804   9.609   0.934  1.00  0.00     0.011 A 
ATOM      4  C   UNL     1       1.858   9.060   0.105  1.00  0.00    -0.005 A 
ATOM      5  C   UNL     1       1.793   7.728  -0.299  1.00  0.00     0.021 A 
ATOM      6  C   UNL     1       2.712   6.785  -0.021  1.00  0.00     0.064 A 
ATOM      7  C   UNL     1       3.872   6.802   0.698  1.00  0.00     0.202 A 
ATOM      8  O   UNL     1       4.521   5.765   0.683  1.00  0.00    -0.288 OA
ENDROOT
BRANCH   1   9
ATOM      9  N   UNL     1       5.568   7.581   2.161  1.00  0.00    -0.382 N 
ATOM     10  H   UNL     1       5.993   6.643   2.125  1.00  0.00     0.160 HD
BRANCH   9  11
ATOM     11  C   UNL     1       6.187   8.636   2.968  1.00  0.00     0.113 C 
BRANCH  11  12
ATOM     12  C   UNL     1       7.441   8.085   3.650  1.00  0.00     0.021 C 
BRANCH  12  13
ATOM     13  C   UNL     1       8.088   9.187   4.493  1.00  0.00    -0.002 C 
ATOM     14  C   UNL     1       9.342   8.637   5.175  1.00  0.00     0.004 C 
ENDBRANCH  12  13
ENDBRANCH  11  12
ENDBRANCH   9  11
ENDBRANCH   1   9
BRANCH   5  15
ATOM     15  C   UNL     1       0.601   7.283  -1.122  1.00  0.00     0.216 C 
BRANCH  15  16
ATOM     16  C   UNL     1       0.747   7.674  -2.579  1.00  0.00     0.075 CG0
ATOM     17  G   UNL     1       1.236   9.113  -2.715  1.00  0.00     0.000 G0
ENDBRANCH  15  16
BRANCH  15  18
ATOM     18  N   UNL     1       0.498   5.811  -1.040  1.00  0.00    -0.327 N 
ATOM     19  C   UNL     1      -0.648   5.339  -1.846  1.00  0.00     0.333 C 
ATOM     20  H   UNL     1       1.363   5.393  -1.411  1.00  0.00     0.348 HD
BRANCH  18  21
ATOM     21  C   UNL     1       0.330   5.394   0.369  1.00  0.00     0.303 C 
BRANCH  21  22
ATOM     22  C   UNL     1       0.448   3.894   0.450  1.00  0.00     0.048 A 
ATOM     23  C   UNL     1       1.698   3.294   0.431  1.00  0.00     0.124 A 
ATOM     24  C   UNL     1      -0.689   3.115   0.542  1.00  0.00     0.013 A 
ATOM     25  C   UNL     1       1.804   1.913   0.505  1.00  0.00     0.046 A 
ATOM     26  C   UNL     1      -0.582   1.738   0.610  1.00  0.00     0.001 A 
ATOM     27  C   UNL     1       0.664   1.138   0.597  1.00  0.00     0.004 A 
BRANCH  23  28
ATOM     28  O   UNL     1       2.818   4.059   0.340  1.00  0.00    -0.507 OA
ATOM     29  H   UNL     1       2.762   4.685   1.105  1.00  0.00     0.293 HD
ENDBRANCH  23  28
ENDBRANCH  21  22
ENDBRANCH  18  21
ENDBRANCH  15  18
ENDBRANCH   5  15
BRANCH   4  30
ATOM     30  C   UNL     1       0.796   9.979  -0.403  1.00  0.00     0.032 A 
ATOM     31  C   UNL     1       0.483  10.000  -1.758  1.00  0.00    -0.032 A 
ATOM     32  C   UNL     1       0.116  10.810   0.491  1.00  0.00     0.172 A 
ATOM     33  C   UNL     1      -0.513  10.833  -2.222  1.00  0.00     0.055 A 
ATOM     34  C   UNL     1      -0.883  11.651   0.016  1.00  0.00     0.203 A 
ATOM     35  C   UNL     1      -1.198  11.658  -1.338  1.00  0.00     0.164 A 
BRANCH  31  36
ATOM     36  C   UNL     1       1.236   9.113  -2.715  1.00  0.00     0.043 CG0
ATOM     37  G   UNL     1       0.747   7.674  -2.579  1.00  0.00     0.000 G0
ENDBRANCH  31  36
BRANCH  32  38
ATOM     38  O   UNL     1       0.428  10.797   1.813  1.00  0.00    -0.492 OA
ATOM     39  C   UNL     1      -0.356   9.952   2.657  1.00  0.00     0.278 C 
ENDBRANCH  32  38
BRANCH  34  40
ATOM     40  O   UNL     1      -1.554  12.466   0.875  1.00  0.00    -0.490 OA
ATOM     41  C   UNL     1      -1.007  13.768   1.095  1.00  0.00     0.278 C 
ENDBRANCH  34  40
BRANCH  35  42
ATOM     42  O   UNL     1      -2.179  12.477  -1.800  1.00  0.00    -0.493 OA
ATOM     43  C   UNL     1      -2.452  12.437  -3.202  1.00  0.00     0.278 C 
ENDBRANCH  35  42
ENDBRANCH   4  30
TORSDOF 11
