REMARK SMILES Cc1ccc(-n2c(C)nnc2SCC(=O)N2Cc3ccccc3[C@@H](c3ccccc3)C2)cc1
REMARK SMILES IDX 13 1 12 2 11 3 6 4 7 5 10 6 9 7 8 8 5 9 1 10 2 11 33 12 3 13
REMARK SMILES IDX 32 14 4 15 14 16 15 17 16 18 31 19 17 20 24 21 18 22 23 23
REMARK SMILES IDX 19 24 22 25 20 26 21 27 25 28 30 29 26 30 29 31 27 32 28 33
REMARK H PARENT
REMARK Flexibility Score: inf
ROOT
ATOM      1  C   UNL     1       3.610   0.306   2.880  1.00  0.00     0.178 C 
ENDROOT
BRANCH   1   2
ATOM      2  S   UNL     1       4.988  -0.864   2.783  1.00  0.00    -0.076 SA
BRANCH   2   3
ATOM      3  C   UNL     1       5.448  -0.937   4.482  1.00  0.00     0.196 A 
ATOM      4  N   UNL     1       6.455  -1.689   5.020  1.00  0.00    -0.274 N 
ATOM      5  C   UNL     1       6.439  -1.421   6.364  1.00  0.00     0.135 A 
ATOM      6  N   UNL     1       4.884  -0.285   5.472  1.00  0.00    -0.123 NA
ATOM      7  N   UNL     1       5.472  -0.574   6.578  1.00  0.00    -0.134 NA
ATOM      8  C   UNL     1       7.363  -2.004   7.402  1.00  0.00     0.090 C 
BRANCH   4   9
ATOM      9  C   UNL     1       7.326  -2.552   4.339  1.00  0.00     0.049 A 
ATOM     10  C   UNL     1       9.979  -5.181   2.261  1.00  0.00     0.044 C 
ATOM     11  C   UNL     1       9.043  -4.254   2.994  1.00  0.00    -0.051 A 
ATOM     12  C   UNL     1       8.150  -4.764   3.918  1.00  0.00     0.005 A 
ATOM     13  C   UNL     1       9.080  -2.895   2.740  1.00  0.00     0.005 A 
ATOM     14  C   UNL     1       7.296  -3.916   4.596  1.00  0.00     0.027 A 
ATOM     15  C   UNL     1       8.224  -2.043   3.410  1.00  0.00     0.027 A 
ENDBRANCH   4   9
ENDBRANCH   2   3
ENDBRANCH   1   2
BRANCH   1  16
ATOM     16  C   UNL     1       3.042   0.529   1.502  1.00  0.00     0.233 C 
ATOM     17  O   UNL     1       3.521  -0.046   0.548  1.00  0.00    -0.274 OA
BRANCH  16  18
ATOM     18  N   UNL     1       2.002   1.368   1.330  1.00  0.00    -0.337 N 
ATOM     19  C   UNL     1       1.423   1.608  -0.003  1.00  0.00     0.133 C 
ATOM     20  C   UNL     1       1.400   2.080   2.462  1.00  0.00     0.155 C 
ATOM     21  C   UNL     1      -0.013   1.086   0.008  1.00  0.00     0.069 C 
ATOM     22  C   UNL     1      -0.104   2.014   2.362  1.00  0.00    -0.025 A 
ATOM     23  C   UNL     1      -0.748   1.565   1.232  1.00  0.00    -0.034 A 
ATOM     24  C   UNL     1      -0.845   2.429   3.461  1.00  0.00     0.006 A 
ATOM     25  C   UNL     1      -2.137   1.541   1.199  1.00  0.00     0.005 A 
ATOM     26  C   UNL     1      -2.223   2.401   3.427  1.00  0.00     0.000 A 
ATOM     27  C   UNL     1      -2.872   1.956   2.290  1.00  0.00     0.000 A 
BRANCH  21  28
ATOM     28  C   UNL     1      -0.729   1.578  -1.223  1.00  0.00    -0.039 A 
ATOM     29  C   UNL     1      -1.238   0.673  -2.135  1.00  0.00     0.004 A 
ATOM     30  C   UNL     1      -0.881   2.936  -1.438  1.00  0.00     0.004 A 
ATOM     31  C   UNL     1      -1.895   1.125  -3.265  1.00  0.00     0.000 A 
ATOM     32  C   UNL     1      -1.533   3.388  -2.570  1.00  0.00     0.000 A 
ATOM     33  C   UNL     1      -2.043   2.482  -3.482  1.00  0.00     0.000 A 
ENDBRANCH  21  28
ENDBRANCH  16  18
ENDBRANCH   1  16
TORSDOF 6
