REMARK SMILES O=C(NC1CCCCC1)N1Cc2nc[nH]c2C[C@H]1c1nc(-c2ccc(F)c(Cl)c2)no1
REMARK SMILES IDX 18 1 17 2 16 3 12 4 13 5 14 6 15 7 11 8 10 9 19 11 21 12
REMARK SMILES IDX 30 13 20 14 31 15 22 16 23 17 24 18 29 19 25 20 27 21 26 22
REMARK SMILES IDX 28 23 2 24 1 25 3 26 4 28 9 29 5 30 8 31 6 32 7 33
REMARK H PARENT 15 10 3 27
REMARK Flexibility Score: inf
ROOT
ATOM      1  C   UNL     1      -6.102   4.229   0.084  1.00  0.00     0.183 C 
ATOM      2  C   UNL     1      -6.650   4.577  -1.306  1.00  0.00     0.091 C 
ATOM      3  C   UNL     1      -6.554   6.069  -1.504  1.00  0.00     0.042 A 
ATOM      4  C   UNL     1      -6.395   6.970  -0.511  1.00  0.00     0.081 A 
ATOM      5  N   UNL     1      -6.361   8.188  -1.057  1.00  0.00    -0.240 NA
ATOM      6  C   UNL     1      -6.491   8.079  -2.354  1.00  0.00     0.197 A 
ATOM      7  N   UNL     1      -6.613   6.769  -2.671  1.00  0.00    -0.348 N 
ATOM      8  C   UNL     1      -6.279   6.599   0.948  1.00  0.00     0.180 C 
ATOM      9  N   UNL     1      -6.646   5.176   1.068  1.00  0.00    -0.306 N 
ATOM     10  H   UNL     1      -6.729   6.376  -3.615  1.00  0.00     0.167 HD
ENDROOT
BRANCH   1  11
ATOM     11  C   UNL     1      -4.598   4.323   0.071  1.00  0.00     0.250 A 
ATOM     12  C   UNL     1      -2.525   3.880   0.052  1.00  0.00     0.202 A 
ATOM     13  N   UNL     1      -2.691   5.177   0.062  1.00  0.00    -0.057 NA
ATOM     14  N   UNL     1      -3.756   3.320   0.061  1.00  0.00    -0.189 NA
ATOM     15  O   UNL     1      -3.873   5.446   0.068  1.00  0.00    -0.337 OA
BRANCH  12  16
ATOM     16  C   UNL     1      -1.229   3.157   0.039  1.00  0.00     0.024 A 
ATOM     17  C   UNL     1      -1.206   1.764   0.030  1.00  0.00     0.015 A 
ATOM     18  C   UNL     1       0.001   1.095   0.023  1.00  0.00     0.041 A 
ATOM     19  C   UNL     1      -0.032   3.870   0.031  1.00  0.00     0.035 A 
ATOM     20  C   UNL     1       1.190   1.807   0.015  1.00  0.00     0.141 A 
ATOM     21  C   UNL     1       1.172   3.194   0.019  1.00  0.00     0.077 A 
ATOM     22  F   UNL     1       2.369   1.148   0.002  1.00  0.00    -0.205 F 
ATOM     23  Cl  UNL     1       2.664   4.080   0.008  1.00  0.00    -0.081 Cl
ENDBRANCH  12  16
ENDBRANCH   1  11
BRANCH   9  24
ATOM     24  C   UNL     1      -7.460   4.754   2.056  1.00  0.00     0.318 C 
ATOM     25  O   UNL     1      -7.829   3.596   2.086  1.00  0.00    -0.249 OA
ATOM     26  N   UNL     1      -7.864   5.615   3.010  1.00  0.00    -0.335 N 
ATOM     27  H   UNL     1      -7.615   6.612   2.943  1.00  0.00     0.165 HD
BRANCH  26  28
ATOM     28  C   UNL     1      -8.659   5.133   4.143  1.00  0.00     0.083 C 
ATOM     29  C   UNL     1      -8.468   6.072   5.336  1.00  0.00     0.025 C 
ATOM     30  C   UNL     1     -10.138   5.101   3.751  1.00  0.00     0.025 C 
ATOM     31  C   UNL     1      -9.297   5.569   6.519  1.00  0.00     0.002 C 
ATOM     32  C   UNL     1     -10.967   4.598   4.934  1.00  0.00     0.002 C 
ATOM     33  C   UNL     1     -10.776   5.536   6.127  1.00  0.00     0.000 C 
ENDBRANCH  26  28
ENDBRANCH   9  24
TORSDOF 4
