REMARK SMILES Cc1ccc(NC(=O)c2c(C)nc3sc(C(=O)NC4CCCC4)c(N)c3c2-c2ccco2)c(C)c1
REMARK SMILES IDX 9 1 10 2 12 3 13 4 26 5 27 6 24 7 15 8 14 9 11 10 7 11 6 12
REMARK SMILES IDX 8 14 5 15 1 16 2 17 35 18 3 19 33 20 4 21 34 22 28 23 32 24
REMARK SMILES IDX 29 25 31 26 30 27 25 28 16 31 17 32 18 33 19 35 23 36 20 37
REMARK SMILES IDX 22 38 21 39
REMARK H PARENT 6 13 25 29 25 30 18 34
REMARK Flexibility Score: inf
ROOT
ATOM      1  C   UNL     1      -3.023   0.708   1.108  1.00  0.00     0.073 A 
ATOM      2  C   UNL     1      -4.355   0.284   1.080  1.00  0.00     0.053 A 
ATOM      3  N   UNL     1      -5.118   0.552   0.042  1.00  0.00    -0.241 NA
ATOM      4  C   UNL     1      -4.670   1.222  -1.003  1.00  0.00     0.127 A 
ATOM      5  C   UNL     1      -3.347   1.708  -1.092  1.00  0.00     0.047 A 
ATOM      6  C   UNL     1      -2.494   1.427   0.019  1.00  0.00     0.044 A 
ATOM      7  C   UNL     1      -3.033   2.430  -2.312  1.00  0.00     0.066 A 
ATOM      8  C   UNL     1      -4.027   2.582  -3.256  1.00  0.00     0.118 A 
ATOM      9  S   UNL     1      -5.418   1.739  -2.529  1.00  0.00    -0.108 S 
ATOM     10  C   UNL     1      -4.921  -0.486   2.245  1.00  0.00     0.067 C 
ENDROOT
BRANCH   1  11
ATOM     11  C   UNL     1      -2.176   0.405   2.273  1.00  0.00     0.258 C 
ATOM     12  N   UNL     1      -1.459  -0.736   2.306  1.00  0.00    -0.322 N 
ATOM     13  H   UNL     1      -1.567  -1.434   1.556  1.00  0.00     0.170 HD
ATOM     14  O   UNL     1      -2.124   1.183   3.206  1.00  0.00    -0.269 OA
BRANCH  12  15
ATOM     15  C   UNL     1      -0.567  -0.971   3.357  1.00  0.00     0.044 A 
ATOM     16  C   UNL     1       2.157  -1.689   6.571  1.00  0.00     0.044 C 
ATOM     17  C   UNL     1       1.197  -1.435   5.438  1.00  0.00    -0.051 A 
ATOM     18  C   UNL     1       0.657  -2.500   4.740  1.00  0.00     0.009 A 
ATOM     19  C   UNL     1       0.857  -0.139   5.098  1.00  0.00     0.005 A 
ATOM     20  C   UNL     1      -0.227  -2.272   3.703  1.00  0.00    -0.027 A 
ATOM     21  C   UNL     1      -0.023   0.097   4.060  1.00  0.00     0.027 A 
ATOM     22  C   UNL     1      -0.819  -3.433   2.947  1.00  0.00     0.046 C 
ENDBRANCH  12  15
ENDBRANCH   1  11
BRANCH   6  23
ATOM     23  C   UNL     1      -1.097   1.882   0.028  1.00  0.00     0.135 A 
ATOM     24  O   UNL     1      -0.683   3.165   0.044  1.00  0.00    -0.464 OA
ATOM     25  C   UNL     1       0.007   1.081   0.024  1.00  0.00     0.051 A 
ATOM     26  C   UNL     1       0.658   3.200   0.041  1.00  0.00     0.196 A 
ATOM     27  C   UNL     1       1.125   1.933   0.029  1.00  0.00     0.043 A 
ENDBRANCH   6  23
BRANCH   7  28
ATOM     28  N   UNL     1      -1.765   2.954  -2.522  1.00  0.00    -0.397 N 
ATOM     29  H   UNL     1      -1.041   2.828  -1.801  1.00  0.00     0.156 HD
ATOM     30  H   UNL     1      -1.549   3.466  -3.389  1.00  0.00     0.156 HD
ENDBRANCH   7  28
BRANCH   8  31
ATOM     31  C   UNL     1      -3.955   3.240  -4.509  1.00  0.00     0.263 C 
ATOM     32  O   UNL     1      -2.913   3.762  -4.863  1.00  0.00    -0.268 OA
ATOM     33  N   UNL     1      -5.039   3.288  -5.308  1.00  0.00    -0.349 N 
ATOM     34  H   UNL     1      -5.920   2.847  -5.008  1.00  0.00     0.164 HD
BRANCH  33  35
ATOM     35  C   UNL     1      -4.964   3.969  -6.603  1.00  0.00     0.082 C 
ATOM     36  C   UNL     1      -6.021   3.393  -7.562  1.00  0.00     0.025 C 
ATOM     37  C   UNL     1      -5.292   5.466  -6.433  1.00  0.00     0.025 C 
ATOM     38  C   UNL     1      -6.955   4.562  -7.941  1.00  0.00     0.002 C 
ATOM     39  C   UNL     1      -6.093   5.827  -7.709  1.00  0.00     0.002 C 
ENDBRANCH  33  35
ENDBRANCH   8  31
TORSDOF 6
