REMARK SMILES O=C(CCCSc1nc2ccccc2s1)Nc1sc2c(c1-c1nc3ccccc3[nH]1)CCCC2
REMARK SMILES IDX 3 1 2 2 16 3 1 5 17 6 21 7 20 8 18 9 31 10 19 11 32 12 34 13
REMARK SMILES IDX 33 14 22 15 27 16 28 17 26 18 29 19 25 20 24 21 30 22 23 23
REMARK SMILES IDX 4 25 5 26 6 27 7 28 15 29 8 30 14 31 9 32 13 33 10 34 12 35
REMARK SMILES IDX 11 36
REMARK H PARENT 16 4 30 24
REMARK Flexibility Score: inf
ROOT
ATOM      1  C   UNL     1      -7.918   1.173   3.493  1.00  0.00     0.101 C 
ENDROOT
BRANCH   1   2
ATOM      2  C   UNL     1      -6.762   0.989   2.543  1.00  0.00     0.225 C 
ATOM      3  N   UNL     1      -5.503   1.227   2.960  1.00  0.00    -0.317 N 
ATOM      4  H   UNL     1      -5.330   1.535   3.928  1.00  0.00     0.170 HD
ATOM      5  O   UNL     1      -6.966   0.627   1.403  1.00  0.00    -0.275 OA
BRANCH   3   6
ATOM      6  C   UNL     1      -4.437   1.057   2.084  1.00  0.00     0.107 A 
ATOM      7  C   UNL     1      -3.079   1.147   2.341  1.00  0.00     0.055 A 
ATOM      8  C   UNL     1      -2.162   0.924   1.238  1.00  0.00    -0.021 A 
ATOM      9  S   UNL     1      -4.470   0.669   0.343  1.00  0.00    -0.122 S 
ATOM     10  C   UNL     1      -0.646   0.993   1.387  1.00  0.00     0.037 C 
ATOM     11  C   UNL     1      -2.724   0.644   0.040  1.00  0.00     0.011 A 
ATOM     12  C   UNL     1       0.001   0.273   0.203  1.00  0.00     0.005 C 
ATOM     13  C   UNL     1      -2.019   0.375  -1.253  1.00  0.00     0.047 C 
ATOM     14  C   UNL     1      -0.558   0.826  -1.111  1.00  0.00     0.006 C 
BRANCH   7  15
ATOM     15  C   UNL     1      -2.580   1.460   3.691  1.00  0.00     0.141 A 
ATOM     16  C   UNL     1      -0.483   2.467   7.590  1.00  0.00     0.002 A 
ATOM     17  C   UNL     1      -0.201   2.278   6.253  1.00  0.00     0.028 A 
ATOM     18  C   UNL     1      -1.783   2.346   8.059  1.00  0.00     0.002 A 
ATOM     19  C   UNL     1      -1.224   1.964   5.370  1.00  0.00     0.066 A 
ATOM     20  C   UNL     1      -2.810   2.035   7.198  1.00  0.00     0.030 A 
ATOM     21  C   UNL     1      -2.543   1.840   5.839  1.00  0.00     0.089 A 
ATOM     22  N   UNL     1      -1.272   1.714   4.010  1.00  0.00    -0.338 N 
ATOM     23  N   UNL     1      -3.322   1.533   4.772  1.00  0.00    -0.228 NA
ATOM     24  H   UNL     1      -0.474   1.718   3.359  1.00  0.00     0.168 HD
ENDBRANCH   7  15
ENDBRANCH   3   6
ENDBRANCH   1   2
BRANCH   1  25
ATOM     25  C   UNL     1      -9.227   0.840   2.774  1.00  0.00     0.021 C 
BRANCH  25  26
ATOM     26  C   UNL     1     -10.400   1.027   3.738  1.00  0.00     0.078 C 
BRANCH  26  27
ATOM     27  S   UNL     1     -11.948   0.632   2.888  1.00  0.00    -0.096 SA
BRANCH  27  28
ATOM     28  C   UNL     1     -13.097   0.924   4.192  1.00  0.00     0.151 A 
ATOM     29  S   UNL     1     -12.777   1.450   5.870  1.00  0.00    -0.108 S 
ATOM     30  N   UNL     1     -14.406   0.804   4.180  1.00  0.00    -0.230 NA
ATOM     31  C   UNL     1     -14.466   1.474   6.422  1.00  0.00     0.055 A 
ATOM     32  C   UNL     1     -15.167   1.063   5.266  1.00  0.00     0.083 A 
ATOM     33  C   UNL     1     -15.096   1.774   7.603  1.00  0.00     0.021 A 
ATOM     34  C   UNL     1     -16.573   0.974   5.387  1.00  0.00     0.030 A 
ATOM     35  C   UNL     1     -16.474   1.675   7.686  1.00  0.00     0.002 A 
ATOM     36  C   UNL     1     -17.194   1.275   6.571  1.00  0.00     0.002 A 
ENDBRANCH  27  28
ENDBRANCH  26  27
ENDBRANCH  25  26
ENDBRANCH   1  25
TORSDOF 7
