REMARK SMILES CCCCNC(=O)NC(=O)[C@H](C)Sc1nc2sc3c(c2c(=O)n1CCC[NH+](C)C)CCCC3
REMARK SMILES IDX 13 1 11 2 12 3 9 4 5 5 6 6 7 8 8 9 10 11 4 12 3 13 2 14 1 15
REMARK SMILES IDX 14 16 23 17 15 18 21 19 16 20 20 21 22 22 17 23 19 24 18 25
REMARK SMILES IDX 30 26 33 27 31 28 32 29 24 30 25 31 26 32 27 33 28 34 29 35
REMARK H PARENT 5 7 8 10 27 36
REMARK Flexibility Score: inf
ROOT
ATOM      1  S   UNL     1       2.669   4.146  -0.001  1.00  0.00    -0.075 SA
ENDROOT
BRANCH   1   2
ATOM      2  C   UNL     1       2.064   5.852   0.013  1.00  0.00     0.141 C 
ATOM      3  C   UNL     1       1.331   6.122   1.329  1.00  0.00     0.030 C 
BRANCH   2   4
ATOM      4  C   UNL     1       3.229   6.800  -0.117  1.00  0.00     0.241 C 
ATOM      5  N   UNL     1       3.861  10.180  -1.058  1.00  0.00    -0.338 N 
ATOM      6  C   UNL     1       4.066   8.914  -0.645  1.00  0.00     0.321 C 
ATOM      7  H   UNL     1       2.909  10.501  -1.285  1.00  0.00     0.165 HD
ATOM      8  O   UNL     1       5.190   8.536  -0.378  1.00  0.00    -0.248 OA
ATOM      9  N   UNL     1       3.024   8.066  -0.529  1.00  0.00    -0.277 N 
ATOM     10  H   UNL     1       2.072   8.387  -0.756  1.00  0.00     0.174 HD
ATOM     11  O   UNL     1       4.350   6.423   0.150  1.00  0.00    -0.273 OA
BRANCH   5  12
ATOM     12  C   UNL     1       4.994  11.101  -1.184  1.00  0.00     0.117 C 
BRANCH  12  13
ATOM     13  C   UNL     1       4.492  12.464  -1.666  1.00  0.00     0.021 C 
BRANCH  13  14
ATOM     14  C   UNL     1       5.674  13.426  -1.798  1.00  0.00    -0.002 C 
ATOM     15  C   UNL     1       5.172  14.788  -2.280  1.00  0.00     0.004 C 
ENDBRANCH  13  14
ENDBRANCH  12  13
ENDBRANCH   5  12
ENDBRANCH   2   4
ENDBRANCH   1   2
BRANCH   1  16
ATOM     16  C   UNL     1       1.137   3.278   0.009  1.00  0.00     0.173 A 
ATOM     17  N   UNL     1       1.136   1.913   0.002  1.00  0.00    -0.287 N 
ATOM     18  N   UNL     1       0.006   3.954   0.022  1.00  0.00    -0.213 NA
ATOM     19  C   UNL     1      -0.015   1.215   0.009  1.00  0.00     0.263 A 
ATOM     20  C   UNL     1      -1.163   3.325   0.030  1.00  0.00     0.132 A 
ATOM     21  C   UNL     1      -1.258   1.923   0.018  1.00  0.00     0.080 A 
ATOM     22  O   UNL     1       0.002  -0.004   0.002  1.00  0.00    -0.268 OA
ATOM     23  S   UNL     1      -2.858   3.852   0.047  1.00  0.00    -0.120 S 
ATOM     24  C   UNL     1      -2.615   1.374   0.033  1.00  0.00    -0.019 A 
ATOM     25  C   UNL     1      -3.633   2.258   0.046  1.00  0.00     0.011 A 
ATOM     26  C   UNL     1      -2.885  -0.128   0.030  1.00  0.00     0.037 C 
ATOM     27  C   UNL     1      -5.100   1.953   0.058  1.00  0.00     0.047 C 
ATOM     28  C   UNL     1      -4.319  -0.372   0.505  1.00  0.00     0.005 C 
ATOM     29  C   UNL     1      -5.291   0.477  -0.320  1.00  0.00     0.006 C 
BRANCH  17  30
ATOM     30  C   UNL     1       2.413   1.194  -0.014  1.00  0.00     0.134 C 
BRANCH  30  31
ATOM     31  C   UNL     1       2.844   0.951  -1.462  1.00  0.00     0.083 C 
BRANCH  31  32
ATOM     32  C   UNL     1       4.177   0.200  -1.478  1.00  0.00     0.263 C 
BRANCH  32  33
ATOM     33  N   UNL     1       4.590  -0.033  -2.868  1.00  0.00    -0.340 N 
ATOM     34  C   UNL     1       4.895   1.234  -3.546  1.00  0.00     0.332 C 
ATOM     35  C   UNL     1       5.736  -0.952  -2.929  1.00  0.00     0.332 C 
ATOM     36  H   UNL     1       3.803  -0.476  -3.362  1.00  0.00     0.347 HD
ENDBRANCH  32  33
ENDBRANCH  31  32
ENDBRANCH  30  31
ENDBRANCH  17  30
ENDBRANCH   1  16
TORSDOF 10
