REMARK SMILES CCCCn1c(SCC(=O)NC(=O)NC2CCCCC2)nc2sc(C)c(C)c2c1=O
REMARK SMILES IDX 5 1 29 2 30 3 28 4 26 5 24 6 23 7 22 8 21 9 6 10 25 11 27 12
REMARK SMILES IDX 4 13 3 14 2 15 1 16 7 17 8 18 9 19 10 20 11 21 12 22 13 24
REMARK SMILES IDX 14 25 15 27 20 28 16 29 19 30 17 31 18 32
REMARK H PARENT 11 23 14 26
REMARK Flexibility Score: inf
ROOT
ATOM      1  N   UNL     1      -3.733   6.675   0.056  1.00  0.00    -0.287 N 
ATOM      2  C   UNL     1      -3.569   8.011   0.062  1.00  0.00     0.263 A 
ATOM      3  O   UNL     1      -4.537   8.752   0.070  1.00  0.00    -0.268 OA
ATOM      4  C   UNL     1      -2.244   8.550   0.060  1.00  0.00     0.080 A 
ATOM      5  C   UNL     1      -1.816   9.938   0.065  1.00  0.00    -0.022 A 
ATOM      6  C   UNL     1      -0.504  10.219   0.060  1.00  0.00     0.007 A 
ATOM      7  S   UNL     1       0.264   8.611   0.048  1.00  0.00    -0.120 S 
ATOM      8  C   UNL     1      -1.199   7.607   0.050  1.00  0.00     0.132 A 
ATOM      9  N   UNL     1      -1.430   6.300   0.049  1.00  0.00    -0.213 NA
ATOM     10  C   UNL     1      -2.661   5.830   0.046  1.00  0.00     0.172 A 
ATOM     11  C   UNL     1       0.160  11.572   0.063  1.00  0.00     0.057 C 
ATOM     12  C   UNL     1      -2.833  11.050   0.076  1.00  0.00     0.046 C 
ENDROOT
BRANCH   1  13
ATOM     13  C   UNL     1      -5.088   6.117   0.059  1.00  0.00     0.128 C 
BRANCH  13  14
ATOM     14  C   UNL     1      -5.553   5.915   1.502  1.00  0.00     0.022 C 
BRANCH  14  15
ATOM     15  C   UNL     1      -6.967   5.333   1.505  1.00  0.00    -0.002 C 
ATOM     16  C   UNL     1      -7.433   5.130   2.949  1.00  0.00     0.004 C 
ENDBRANCH  14  15
ENDBRANCH  13  14
ENDBRANCH   1  13
BRANCH  10  17
ATOM     17  S   UNL     1      -2.927   4.088   0.038  1.00  0.00    -0.078 SA
BRANCH  17  18
ATOM     18  C   UNL     1      -1.213   3.508   0.027  1.00  0.00     0.178 C 
BRANCH  18  19
ATOM     19  C   UNL     1      -1.192   2.002   0.019  1.00  0.00     0.238 C 
ATOM     20  O   UNL     1      -2.234   1.381   0.020  1.00  0.00    -0.274 OA
ATOM     21  N   UNL     1      -0.016   1.344   0.009  1.00  0.00    -0.277 N 
ATOM     22  C   UNL     1       0.002  -0.004   0.002  1.00  0.00     0.321 C 
ATOM     23  H   UNL     1       0.869   1.871   0.008  1.00  0.00     0.174 HD
ATOM     24  O   UNL     1      -1.042  -0.626   0.009  1.00  0.00    -0.248 OA
ATOM     25  N   UNL     1       1.178  -0.662  -0.013  1.00  0.00    -0.335 N 
ATOM     26  H   UNL     1       2.063  -0.135  -0.018  1.00  0.00     0.165 HD
BRANCH  25  27
ATOM     27  C   UNL     1       1.198  -2.127  -0.021  1.00  0.00     0.083 C 
ATOM     28  C   UNL     1       2.506  -2.616  -0.646  1.00  0.00     0.025 C 
ATOM     29  C   UNL     1       1.093  -2.646   1.415  1.00  0.00     0.025 C 
ATOM     30  C   UNL     1       2.527  -4.146  -0.654  1.00  0.00     0.002 C 
ATOM     31  C   UNL     1       1.114  -4.176   1.406  1.00  0.00     0.002 C 
ATOM     32  C   UNL     1       2.422  -4.665   0.781  1.00  0.00     0.000 C 
ENDBRANCH  25  27
ENDBRANCH  18  19
ENDBRANCH  17  18
ENDBRANCH  10  17
TORSDOF 7
