REMARK SMILES CCCN(C(=O)c1cc2c3ccccc3n(C)c2s1)c1c(N)n(Cc2ccccc2)c(=O)[nH]c1=O
REMARK SMILES IDX 20 1 21 2 23 3 31 4 32 5 33 6 34 7 35 8 4 10 3 11 2 12 1 13
REMARK SMILES IDX 5 14 6 15 7 16 19 17 8 18 18 19 9 20 16 21 10 22 15 23 17 24
REMARK SMILES IDX 11 25 14 26 12 27 13 28 22 29 24 32 25 33 30 34 26 35 29 36
REMARK SMILES IDX 27 37 28 38
REMARK H PARENT 33 9 22 30 22 31
REMARK Flexibility Score: inf
ROOT
ATOM      1  C   UNL     1       1.057   2.075  -0.254  1.00  0.00     0.151 A 
ATOM      2  C   UNL     1       2.044   2.243   0.696  1.00  0.00     0.138 A 
ATOM      3  N   UNL     1       2.817   3.381   0.668  1.00  0.00    -0.274 N 
ATOM      4  C   UNL     1       2.607   4.323  -0.269  1.00  0.00     0.330 A 
ATOM      5  O   UNL     1       3.297   5.324  -0.274  1.00  0.00    -0.248 OA
ATOM      6  N   UNL     1       1.647   4.179  -1.200  1.00  0.00    -0.272 N 
ATOM      7  C   UNL     1       0.865   3.081  -1.219  1.00  0.00     0.279 A 
ATOM      8  O   UNL     1      -0.002   2.960  -2.067  1.00  0.00    -0.267 OA
ATOM      9  H   UNL     1       1.507   4.916  -1.905  1.00  0.00     0.175 HD
ENDROOT
BRANCH   1  10
ATOM     10  N   UNL     1       0.251   0.917  -0.254  1.00  0.00    -0.300 N 
BRANCH  10  11
ATOM     11  C   UNL     1      -1.198   1.033  -0.074  1.00  0.00     0.126 C 
BRANCH  11  12
ATOM     12  C   UNL     1      -1.536   0.936   1.415  1.00  0.00     0.019 C 
ATOM     13  C   UNL     1      -3.050   1.057   1.603  1.00  0.00     0.006 C 
ENDBRANCH  11  12
ENDBRANCH  10  11
BRANCH  10  14
ATOM     14  C   UNL     1       0.813  -0.296  -0.426  1.00  0.00     0.268 C 
ATOM     15  O   UNL     1       2.003  -0.386  -0.673  1.00  0.00    -0.268 OA
BRANCH  14  16
ATOM     16  C   UNL     1      -0.005  -1.504  -0.315  1.00  0.00     0.095 A 
ATOM     17  S   UNL     1      -1.713  -1.655   0.177  1.00  0.00    -0.112 S 
ATOM     18  C   UNL     1       0.351  -2.811  -0.559  1.00  0.00     0.036 A 
ATOM     19  C   UNL     1      -1.869  -3.419   0.026  1.00  0.00     0.104 A 
ATOM     20  C   UNL     1      -0.598  -3.824  -0.390  1.00  0.00     0.020 A 
ATOM     21  N   UNL     1      -2.693  -4.493   0.152  1.00  0.00    -0.335 N 
ATOM     22  C   UNL     1      -0.702  -5.305  -0.518  1.00  0.00     0.008 A 
ATOM     23  C   UNL     1      -2.012  -5.654  -0.172  1.00  0.00     0.049 A 
ATOM     24  C   UNL     1      -4.096  -4.431   0.569  1.00  0.00     0.151 C 
ATOM     25  C   UNL     1       0.212  -6.286  -0.891  1.00  0.00     0.011 A 
ATOM     26  C   UNL     1      -2.393  -6.992  -0.204  1.00  0.00     0.027 A 
ATOM     27  C   UNL     1      -0.182  -7.608  -0.918  1.00  0.00     0.001 A 
ATOM     28  C   UNL     1      -1.480  -7.957  -0.575  1.00  0.00     0.002 A 
ENDBRANCH  14  16
ENDBRANCH  10  14
ENDBRANCH   1  10
BRANCH   2  29
ATOM     29  N   UNL     1       2.255   1.282   1.657  1.00  0.00    -0.383 N 
ATOM     30  H   UNL     1       1.673   0.433   1.666  1.00  0.00     0.158 HD
ATOM     31  H   UNL     1       2.992   1.411   2.364  1.00  0.00     0.158 HD
ENDBRANCH   2  29
BRANCH   3  32
ATOM     32  C   UNL     1       3.870   3.570   1.668  1.00  0.00     0.164 C 
BRANCH  32  33
ATOM     33  C   UNL     1       3.301   4.281   2.869  1.00  0.00    -0.028 A 
ATOM     34  C   UNL     1       2.763   3.552   3.913  1.00  0.00     0.005 A 
ATOM     35  C   UNL     1       3.324   5.662   2.929  1.00  0.00     0.005 A 
ATOM     36  C   UNL     1       2.241   4.204   5.014  1.00  0.00     0.000 A 
ATOM     37  C   UNL     1       2.797   6.314   4.029  1.00  0.00     0.000 A 
ATOM     38  C   UNL     1       2.258   5.585   5.072  1.00  0.00     0.000 A 
ENDBRANCH  32  33
ENDBRANCH   3  32
TORSDOF 8
