REMARK SMILES C[C@@H]1CN(CCOc2ccc(-c3[nH]ncc3-c3ccc(Br)cc3)c(O)c2)C[C@H](C)O1
REMARK SMILES IDX 7 1 6 2 5 3 4 4 29 5 28 6 30 7 27 8 2 9 3 10 1 11 8 12 26 13
REMARK SMILES IDX 9 14 24 15 10 16 11 17 25 18 12 20 13 21 16 22 14 23 15 25
REMARK SMILES IDX 17 26 23 27 18 28 22 29 19 30 20 31 21 32
REMARK H PARENT 25 19 13 24
REMARK Flexibility Score: inf
ROOT
ATOM      1  O   UNL     1       1.618   5.090   5.281  1.00  0.00    -0.492 OA
ENDROOT
BRANCH   1   2
ATOM      2  C   UNL     1       1.004   4.574   6.464  1.00  0.00     0.245 C 
BRANCH   2   3
ATOM      3  C   UNL     1       1.719   5.135   7.695  1.00  0.00     0.126 C 
BRANCH   3   4
ATOM      4  N   UNL     1       1.543   6.603   7.720  1.00  0.00    -0.295 NA
ATOM      5  C   UNL     1       3.367   9.391   9.538  1.00  0.00     0.040 C 
ATOM      6  C   UNL     1       2.367   8.738   8.582  1.00  0.00     0.129 C 
ATOM      7  O   UNL     1       1.035   9.056   8.993  1.00  0.00    -0.373 OA
ATOM      8  C   UNL     1       2.553   7.218   8.606  1.00  0.00     0.116 C 
ATOM      9  C   UNL     1       0.023   8.463   8.175  1.00  0.00     0.129 C 
ATOM     10  C   UNL     1       0.185   6.941   8.195  1.00  0.00     0.116 C 
ATOM     11  C   UNL     1      -1.358   8.838   8.718  1.00  0.00     0.040 C 
ENDBRANCH   3   4
ENDBRANCH   2   3
ENDBRANCH   1   2
BRANCH   1  12
ATOM     12  C   UNL     1       1.099   4.688   4.091  1.00  0.00     0.123 A 
ATOM     13  C   UNL     1       1.649   5.152   2.905  1.00  0.00     0.093 A 
ATOM     14  C   UNL     1       0.019   3.814   4.067  1.00  0.00     0.047 A 
ATOM     15  C   UNL     1       1.123   4.745   1.692  1.00  0.00     0.128 A 
ATOM     16  C   UNL     1      -0.516   3.406   2.864  1.00  0.00     0.018 A 
ATOM     17  C   UNL     1       0.034   3.864   1.665  1.00  0.00     0.042 A 
BRANCH  15  18
ATOM     18  O   UNL     1       1.660   5.199   0.530  1.00  0.00    -0.507 OA
ATOM     19  H   UNL     1       0.904   5.619   0.048  1.00  0.00     0.293 HD
ENDBRANCH  15  18
BRANCH  17  20
ATOM     20  C   UNL     1      -0.534   3.425   0.375  1.00  0.00     0.077 A 
ATOM     21  N   UNL     1      -1.775   3.717  -0.106  1.00  0.00    -0.277 N 
ATOM     22  C   UNL     1       0.096   2.637  -0.580  1.00  0.00     0.028 A 
ATOM     23  N   UNL     1      -1.910   3.108  -1.359  1.00  0.00    -0.183 NA
ATOM     24  H   UNL     1      -2.489   4.287   0.369  1.00  0.00     0.190 HD
ATOM     25  C   UNL     1      -0.805   2.474  -1.647  1.00  0.00     0.144 A 
BRANCH  22  26
ATOM     26  C   UNL     1       1.466   2.078  -0.493  1.00  0.00    -0.015 A 
ATOM     27  C   UNL     1       1.829   1.281   0.592  1.00  0.00     0.010 A 
ATOM     28  C   UNL     1       2.395   2.343  -1.498  1.00  0.00     0.010 A 
ATOM     29  C   UNL     1       3.104   0.758   0.665  1.00  0.00     0.016 A 
ATOM     30  C   UNL     1       3.668   1.815  -1.415  1.00  0.00     0.016 A 
ATOM     31  C   UNL     1       4.022   1.024  -0.336  1.00  0.00     0.018 A 
ATOM     32  Br  UNL     1       5.768   0.305  -0.228  1.00  0.00    -0.051 Br
ENDBRANCH  22  26
ENDBRANCH  17  20
ENDBRANCH   1  12
TORSDOF 7
