REMARK SMILES O=c1c2c(O)c(O)ccc2c2cc(O)c(O)cc2n1Cc1ccc([N+](=O)[O-])cc1
REMARK SMILES IDX 20 1 21 2 22 3 23 4 29 5 24 6 28 7 25 8 27 9 26 10 19 11
REMARK SMILES IDX 2 12 18 13 3 14 1 15 11 16 17 17 10 18 4 19 12 20 15 21 9 22
REMARK SMILES IDX 6 23 13 24 8 25 5 26 16 28 7 30 14 32
REMARK H PARENT 5 27 16 29 7 31 14 33
REMARK Flexibility Score: inf
ROOT
ATOM      1  C   UNL     1       1.238   1.515   4.918  1.00  0.00     0.161 C 
ENDROOT
BRANCH   1   2
ATOM      2  C   UNL     1       1.611   0.120   5.349  1.00  0.00    -0.028 A 
ATOM      3  C   UNL     1       0.831  -0.954   4.961  1.00  0.00     0.012 A 
ATOM      4  C   UNL     1       1.175  -2.234   5.353  1.00  0.00     0.086 A 
ATOM      5  C   UNL     1       2.728  -0.086   6.136  1.00  0.00     0.012 A 
ATOM      6  C   UNL     1       2.293  -2.440   6.139  1.00  0.00     0.269 A 
ATOM      7  C   UNL     1       3.069  -1.366   6.531  1.00  0.00     0.086 A 
BRANCH   6   8
ATOM      8  N   UNL     1       2.659  -3.811   6.561  1.00  0.00     0.062 N 
ATOM      9  O   UNL     1       3.644  -3.992   7.254  1.00  0.00    -0.258 OA
ATOM     10  O   UNL     1       1.975  -4.757   6.216  1.00  0.00    -0.258 OA
ENDBRANCH   6   8
ENDBRANCH   1   2
BRANCH   1  11
ATOM     11  N   UNL     1       1.891   1.823   3.643  1.00  0.00    -0.303 N 
ATOM     12  C   UNL     1       1.249   1.533   2.498  1.00  0.00     0.263 A 
ATOM     13  C   UNL     1       3.150   2.405   3.659  1.00  0.00     0.056 A 
ATOM     14  C   UNL     1       1.871   1.826   1.202  1.00  0.00     0.093 A 
ATOM     15  O   UNL     1       0.144   1.023   2.537  1.00  0.00    -0.268 OA
ATOM     16  C   UNL     1       3.817   2.706   2.462  1.00  0.00     0.010 A 
ATOM     17  C   UNL     1       3.768   2.684   4.873  1.00  0.00     0.077 A 
ATOM     18  C   UNL     1       3.155   2.413   1.177  1.00  0.00     0.001 A 
ATOM     19  C   UNL     1       1.222   1.532  -0.001  1.00  0.00     0.171 A 
ATOM     20  C   UNL     1       5.079   3.301   2.493  1.00  0.00     0.061 A 
ATOM     21  C   UNL     1       5.023   3.264   4.896  1.00  0.00     0.159 A 
ATOM     22  C   UNL     1       3.761   2.704  -0.039  1.00  0.00     0.014 A 
ATOM     23  C   UNL     1       1.846   1.832  -1.206  1.00  0.00     0.158 A 
ATOM     24  C   UNL     1       5.681   3.573   3.705  1.00  0.00     0.158 A 
ATOM     25  C   UNL     1       3.107   2.414  -1.220  1.00  0.00     0.051 A 
BRANCH  19  26
ATOM     26  O   UNL     1      -0.011   0.963   0.007  1.00  0.00    -0.504 OA
ATOM     27  H   UNL     1       0.088   0.137  -0.530  1.00  0.00     0.293 HD
ENDBRANCH  19  26
BRANCH  21  28
ATOM     28  O   UNL     1       5.621   3.534   6.087  1.00  0.00    -0.504 OA
ATOM     29  H   UNL     1       5.647   2.667   6.564  1.00  0.00     0.293 HD
ENDBRANCH  21  28
BRANCH  23  30
ATOM     30  O   UNL     1       1.218   1.553  -2.380  1.00  0.00    -0.504 OA
ATOM     31  H   UNL     1       1.847   0.971  -2.876  1.00  0.00     0.293 HD
ENDBRANCH  23  30
BRANCH  24  32
ATOM     32  O   UNL     1       6.915   4.143   3.738  1.00  0.00    -0.504 OA
ATOM     33  H   UNL     1       7.470   3.520   4.271  1.00  0.00     0.293 HD
ENDBRANCH  24  32
ENDBRANCH   1  11
TORSDOF 7
