REMARK SMILES CCCn1nc(C(=O)NNC(=O)c2ccc(Cl)cc2Cl)ccc1=O
REMARK SMILES IDX 4 1 23 2 24 3 22 4 21 5 6 6 5 7 3 8 2 9 1 10 7 11 8 12 9 13
REMARK SMILES IDX 10 15 11 16 12 18 13 19 19 20 14 21 18 22 20 23 15 24 16 25
REMARK SMILES IDX 17 26
REMARK H PARENT 9 14 10 17
REMARK Flexibility Score: inf
ROOT
ATOM      1  N   UNL     1       1.139   1.909   0.001  1.00  0.00    -0.229 N 
ATOM      2  C   UNL     1      -0.015   1.216   0.009  1.00  0.00     0.266 A 
ATOM      3  O   UNL     1       0.002  -0.004   0.002  1.00  0.00    -0.268 OA
ATOM      4  C   UNL     1      -1.245   1.910   0.018  1.00  0.00     0.076 A 
ATOM      5  C   UNL     1      -1.209   3.273   0.031  1.00  0.00     0.042 A 
ATOM      6  C   UNL     1       0.056   3.909   0.021  1.00  0.00     0.150 A 
ATOM      7  N   UNL     1       1.157   3.193   0.007  1.00  0.00    -0.164 NA
ENDROOT
BRANCH   1   8
ATOM      8  C   UNL     1       2.409   1.179  -0.014  1.00  0.00     0.148 C 
BRANCH   8   9
ATOM      9  C   UNL     1       2.838   0.932  -1.462  1.00  0.00     0.020 C 
ATOM     10  C   UNL     1       4.164   0.169  -1.478  1.00  0.00     0.006 C 
ENDBRANCH   8   9
ENDBRANCH   1   8
BRANCH   6  11
ATOM     11  C   UNL     1       0.138   5.386   0.027  1.00  0.00     0.290 C 
ATOM     12  O   UNL     1      -0.880   6.051   0.040  1.00  0.00    -0.266 OA
ATOM     13  N   UNL     1       1.340   5.995   0.019  1.00  0.00    -0.262 N 
ATOM     14  H   UNL     1       2.202   5.431   0.008  1.00  0.00     0.191 HD
BRANCH  13  15
ATOM     15  N   UNL     1       1.418   7.393   0.025  1.00  0.00    -0.263 N 
ATOM     16  C   UNL     1       2.620   8.002   0.016  1.00  0.00     0.271 C 
ATOM     17  H   UNL     1       0.556   7.957   0.035  1.00  0.00     0.191 HD
ATOM     18  O   UNL     1       3.638   7.337   0.003  1.00  0.00    -0.267 OA
BRANCH  16  19
ATOM     19  C   UNL     1       2.702   9.476   0.022  1.00  0.00     0.060 A 
ATOM     20  C   UNL     1       3.947  10.110   0.019  1.00  0.00     0.055 A 
ATOM     21  C   UNL     1       1.535  10.243   0.037  1.00  0.00     0.017 A 
ATOM     22  C   UNL     1       4.016  11.489   0.020  1.00  0.00     0.041 A 
ATOM     23  Cl  UNL     1       5.404   9.166   0.008  1.00  0.00    -0.083 Cl
ATOM     24  C   UNL     1       1.617  11.619   0.043  1.00  0.00     0.021 A 
ATOM     25  C   UNL     1       2.855  12.243   0.035  1.00  0.00     0.042 A 
ATOM     26  Cl  UNL     1       2.949  13.976   0.042  1.00  0.00    -0.084 Cl
ENDBRANCH  16  19
ENDBRANCH  13  15
ENDBRANCH   6  11
TORSDOF 5
