REMARK SMILES Cc1ccc(Cn2c(SCC(=O)N/N=C/c3cc(Br)ccc3O)nc3ccccc32)cc1
REMARK SMILES IDX 10 1 9 2 8 3 7 4 30 5 24 6 25 7 29 8 26 9 28 10 27 11 6 12
REMARK SMILES IDX 5 13 1 14 2 15 32 16 3 17 31 18 4 19 11 20 12 21 13 22 14 24
REMARK SMILES IDX 15 25 16 26 22 27 17 28 21 29 18 30 20 31 19 32 23 33
REMARK H PARENT 13 23 23 34
REMARK Flexibility Score: inf
ROOT
ATOM      1  C   UNL     1       3.428   7.812   0.010  1.00  0.00     0.180 C 
ENDROOT
BRANCH   1   2
ATOM      2  S   UNL     1       5.129   8.429  -0.003  1.00  0.00    -0.078 SA
BRANCH   2   3
ATOM      3  C   UNL     1       4.825  10.165   0.009  1.00  0.00     0.169 A 
ATOM      4  N   UNL     1       5.790  11.131   0.010  1.00  0.00    -0.314 N 
ATOM      5  C   UNL     1       5.144  12.357   0.016  1.00  0.00     0.069 A 
ATOM      6  N   UNL     1       3.639  10.721   0.023  1.00  0.00    -0.222 NA
ATOM      7  C   UNL     1       3.769  12.074   0.028  1.00  0.00     0.090 A 
ATOM      8  C   UNL     1       5.580  13.673   0.019  1.00  0.00     0.028 A 
ATOM      9  C   UNL     1       2.850  13.126   0.043  1.00  0.00     0.030 A 
ATOM     10  C   UNL     1       4.660  14.701   0.032  1.00  0.00     0.002 A 
ATOM     11  C   UNL     1       3.301  14.427   0.045  1.00  0.00     0.002 A 
BRANCH   4  12
ATOM     12  C   UNL     1       7.239  10.913   0.003  1.00  0.00     0.160 C 
BRANCH  12  13
ATOM     13  C   UNL     1       7.730  10.846  -1.421  1.00  0.00    -0.028 A 
ATOM     14  C   UNL     1       9.121  10.658  -5.455  1.00  0.00     0.044 C 
ATOM     15  C   UNL     1       8.630  10.724  -4.032  1.00  0.00    -0.051 A 
ATOM     16  C   UNL     1       8.228   9.571  -3.385  1.00  0.00     0.004 A 
ATOM     17  C   UNL     1       8.584  11.938  -3.373  1.00  0.00     0.004 A 
ATOM     18  C   UNL     1       7.781   9.631  -2.078  1.00  0.00     0.006 A 
ATOM     19  C   UNL     1       8.134  11.999  -2.067  1.00  0.00     0.006 A 
ENDBRANCH  12  13
ENDBRANCH   4  12
ENDBRANCH   2   3
ENDBRANCH   1   2
BRANCH   1  20
ATOM     20  C   UNL     1       3.441   6.305   0.002  1.00  0.00     0.250 C 
ATOM     21  O   UNL     1       4.496   5.707  -0.011  1.00  0.00    -0.272 OA
ATOM     22  N   UNL     1       2.279   5.621   0.009  1.00  0.00    -0.246 N 
ATOM     23  H   UNL     1       1.383   6.128   0.020  1.00  0.00     0.193 HD
BRANCH  22  24
ATOM     24  N   UNL     1       2.291   4.220   0.002  1.00  0.00    -0.181 NA
ATOM     25  C   UNL     1       1.172   3.562   0.009  1.00  0.00     0.145 C 
BRANCH  25  26
ATOM     26  C   UNL     1       1.185   2.088   0.002  1.00  0.00     0.037 A 
ATOM     27  C   UNL     1       2.402   1.394  -0.013  1.00  0.00     0.124 A 
ATOM     28  C   UNL     1      -0.017   1.376   0.010  1.00  0.00     0.029 A 
ATOM     29  C   UNL     1       2.403   0.008  -0.020  1.00  0.00     0.048 A 
ATOM     30  C   UNL     1       0.002  -0.004   0.002  1.00  0.00     0.018 A 
ATOM     31  C   UNL     1       1.208  -0.686  -0.013  1.00  0.00     0.019 A 
ATOM     32  Br  UNL     1      -1.625  -0.968   0.012  1.00  0.00    -0.051 Br
BRANCH  27  33
ATOM     33  O   UNL     1       3.576   2.076  -0.021  1.00  0.00    -0.507 OA
ATOM     34  H   UNL     1       3.536   2.659   0.779  1.00  0.00     0.293 HD
ENDBRANCH  27  33
ENDBRANCH  25  26
ENDBRANCH  22  24
ENDBRANCH   1  20
TORSDOF 8
