REMARK SMILES c1cc(Nc2ccc3[nH]ccc3c2)c2sc(-c3ccc(C[NH2+]CCN4CC[NH2+]CC4)cc3)cc2n1
REMARK SMILES IDX 21 1 20 2 19 3 18 4 31 5 17 6 32 7 16 8 15 9 33 10 14 11
REMARK SMILES IDX 34 12 3 13 35 14 2 15 1 16 4 17 5 19 13 20 6 21 12 22 7 23
REMARK SMILES IDX 8 24 11 25 9 26 10 27 22 29 23 32 24 33 25 34 30 35 26 36
REMARK SMILES IDX 29 37 27 38 28 39
REMARK H PARENT 4 18 9 28 22 30 22 31 28 40 28 41
REMARK Flexibility Score: inf
ROOT
ATOM      1  C   UNL     1       1.861 -12.401  -0.352  1.00  0.00     0.297 C 
ENDROOT
BRANCH   1   2
ATOM      2  C   UNL     1       2.092 -10.913  -0.294  1.00  0.00     0.006 A 
ATOM      3  C   UNL     1       1.013 -10.048  -0.297  1.00  0.00     0.010 A 
ATOM      4  C   UNL     1       1.218  -8.685  -0.245  1.00  0.00     0.010 A 
ATOM      5  C   UNL     1       3.383 -10.418  -0.239  1.00  0.00     0.010 A 
ATOM      6  C   UNL     1       2.517  -8.179  -0.189  1.00  0.00    -0.008 A 
ATOM      7  C   UNL     1       3.602  -9.057  -0.192  1.00  0.00     0.010 A 
BRANCH   6   8
ATOM      8  C   UNL     1       2.744  -6.719  -0.134  1.00  0.00     0.037 A 
ATOM      9  S   UNL     1       1.536  -5.404  -0.125  1.00  0.00    -0.131 S 
ATOM     10  C   UNL     1       3.922  -6.047  -0.076  1.00  0.00     0.049 A 
ATOM     11  C   UNL     1       2.655  -4.030  -0.045  1.00  0.00     0.077 A 
ATOM     12  C   UNL     1       3.928  -4.640  -0.028  1.00  0.00     0.084 A 
ATOM     13  C   UNL     1       2.504  -2.654  -0.003  1.00  0.00     0.060 A 
ATOM     14  N   UNL     1       4.999  -3.814   0.032  1.00  0.00    -0.255 NA
ATOM     15  C   UNL     1       3.658  -1.872   0.053  1.00  0.00     0.047 A 
ATOM     16  C   UNL     1       4.886  -2.511   0.073  1.00  0.00     0.114 A 
BRANCH  13  17
ATOM     17  N   UNL     1       1.240  -2.070  -0.021  1.00  0.00    -0.354 N 
ATOM     18  H   UNL     1       0.921  -1.558  -0.856  1.00  0.00     0.167 HD
BRANCH  17  19
ATOM     19  C   UNL     1       0.403  -2.178   1.096  1.00  0.00     0.039 A 
ATOM     20  C   UNL     1      -0.841  -1.574   1.086  1.00  0.00     0.036 A 
ATOM     21  C   UNL     1       0.826  -2.893   2.215  1.00  0.00     0.028 A 
ATOM     22  C   UNL     1      -1.671  -1.686   2.203  1.00  0.00     0.001 A 
ATOM     23  C   UNL     1       0.015  -3.009   3.321  1.00  0.00     0.029 A 
ATOM     24  C   UNL     1      -1.240  -2.409   3.330  1.00  0.00     0.045 A 
ATOM     25  C   UNL     1      -3.008  -1.184   2.530  1.00  0.00     0.028 A 
ATOM     26  N   UNL     1      -2.253  -2.348   4.263  1.00  0.00    -0.361 N 
ATOM     27  C   UNL     1      -3.298  -1.617   3.768  1.00  0.00     0.083 A 
ATOM     28  H   UNL     1      -2.227  -2.786   5.195  1.00  0.00     0.166 HD
ENDBRANCH  17  19
ENDBRANCH  13  17
ENDBRANCH   6   8
ENDBRANCH   1   2
BRANCH   1  29
ATOM     29  N   UNL     1       1.827 -12.838  -1.754  1.00  0.00    -0.341 N 
ATOM     30  H   UNL     1       1.068 -12.344  -2.245  1.00  0.00     0.346 HD
ATOM     31  H   UNL     1       2.723 -12.603  -2.205  1.00  0.00     0.346 HD
BRANCH  29  32
ATOM     32  C   UNL     1       1.603 -14.286  -1.849  1.00  0.00     0.276 C 
BRANCH  32  33
ATOM     33  C   UNL     1       1.575 -14.702  -3.321  1.00  0.00     0.146 C 
BRANCH  33  34
ATOM     34  N   UNL     1       1.351 -16.151  -3.417  1.00  0.00    -0.287 NA
ATOM     35  C   UNL     1       1.081 -16.552  -4.805  1.00  0.00     0.146 C 
ATOM     36  C   UNL     1       0.260 -16.575  -2.528  1.00  0.00     0.146 C 
ATOM     37  C   UNL     1       0.932 -18.073  -4.873  1.00  0.00     0.276 C 
ATOM     38  C   UNL     1       0.111 -18.096  -2.597  1.00  0.00     0.276 C 
ATOM     39  N   UNL     1      -0.158 -18.497  -3.984  1.00  0.00    -0.344 N 
ATOM     40  H   UNL     1      -0.255 -19.522  -4.030  1.00  0.00     0.346 HD
ATOM     41  H   UNL     1      -1.039 -18.066  -4.299  1.00  0.00     0.346 HD
ENDBRANCH  33  34
ENDBRANCH  32  33
ENDBRANCH  29  32
ENDBRANCH   1  29
TORSDOF 8
