REMARK SMILES Cc1oc(-c2ccc(-c3ccccc3)cc2)nc1CN1CCC([NH+]2CCC(O)CC2)CC1
REMARK SMILES IDX 19 1 18 2 1 3 2 4 3 5 4 6 17 7 5 8 16 9 6 10 15 11 7 12 8 13
REMARK SMILES IDX 9 14 14 15 10 16 13 17 11 18 12 19 20 20 32 21 21 22 31 23
REMARK SMILES IDX 22 24 23 25 24 26 30 27 25 28 29 30 26 31 27 32 28 33
REMARK H PARENT 24 29 28 34
REMARK Flexibility Score: inf
ROOT
ATOM      1  C   UNL     1      -0.013   1.086   0.008  1.00  0.00     0.144 C 
ENDROOT
BRANCH   1   2
ATOM      2  C   UNL     1      -0.742   1.585  -1.213  1.00  0.00     0.096 A 
ATOM      3  C   UNL     1      -2.326  -0.390  -1.491  1.00  0.00     0.090 C 
ATOM      4  C   UNL     1      -1.737   0.949  -1.857  1.00  0.00     0.126 A 
ATOM      5  O   UNL     1      -2.111   1.732  -2.888  1.00  0.00    -0.441 OA
ATOM      6  C   UNL     1      -1.338   2.831  -2.869  1.00  0.00     0.226 A 
ATOM      7  N   UNL     1      -0.509   2.740  -1.854  1.00  0.00    -0.213 NA
BRANCH   6   8
ATOM      8  C   UNL     1      -1.408   3.952  -3.827  1.00  0.00     0.037 A 
ATOM      9  C   UNL     1      -2.340   3.925  -4.868  1.00  0.00     0.014 A 
ATOM     10  C   UNL     1      -0.546   5.043  -3.691  1.00  0.00     0.014 A 
ATOM     11  C   UNL     1      -2.405   4.971  -5.760  1.00  0.00     0.009 A 
ATOM     12  C   UNL     1      -0.610   6.086  -4.588  1.00  0.00     0.009 A 
ATOM     13  C   UNL     1      -1.540   6.058  -5.626  1.00  0.00    -0.018 A 
BRANCH  13  14
ATOM     14  C   UNL     1      -1.611   7.184  -6.588  1.00  0.00    -0.018 A 
ATOM     15  C   UNL     1      -0.749   8.272  -6.457  1.00  0.00     0.009 A 
ATOM     16  C   UNL     1      -2.537   7.157  -7.631  1.00  0.00     0.009 A 
ATOM     17  C   UNL     1      -0.819   9.317  -7.356  1.00  0.00     0.001 A 
ATOM     18  C   UNL     1      -2.601   8.210  -8.520  1.00  0.00     0.001 A 
ATOM     19  C   UNL     1      -1.743   9.286  -8.385  1.00  0.00     0.000 A 
ENDBRANCH  13  14
ENDBRANCH   6   8
ENDBRANCH   1   2
BRANCH   1  20
ATOM     20  N   UNL     1      -0.700   1.560   1.217  1.00  0.00    -0.297 NA
ATOM     21  C   UNL     1      -0.165   0.905   2.417  1.00  0.00     0.091 C 
ATOM     22  C   UNL     1      -0.620   3.022   1.329  1.00  0.00     0.091 C 
ATOM     23  C   UNL     1      -0.998   1.311   3.635  1.00  0.00     0.080 C 
ATOM     24  C   UNL     1      -1.466   3.491   2.514  1.00  0.00     0.080 C 
ATOM     25  C   UNL     1      -0.950   2.833   3.797  1.00  0.00     0.186 C 
BRANCH  25  26
ATOM     26  N   UNL     1      -1.794   3.233   4.929  1.00  0.00    -0.332 N 
ATOM     27  C   UNL     1      -1.679   4.674   5.188  1.00  0.00     0.265 C 
ATOM     28  C   UNL     1      -1.472   2.451   6.129  1.00  0.00     0.265 C 
ATOM     29  H   UNL     1      -2.774   3.037   4.680  1.00  0.00     0.348 HD
ATOM     30  C   UNL     1      -2.678   5.081   6.274  1.00  0.00     0.093 C 
ATOM     31  C   UNL     1      -2.464   2.791   7.244  1.00  0.00     0.093 C 
ATOM     32  C   UNL     1      -2.385   4.289   7.552  1.00  0.00     0.125 C 
BRANCH  32  33
ATOM     33  O   UNL     1      -3.349   4.622   8.552  1.00  0.00    -0.393 OA
ATOM     34  H   UNL     1      -3.163   4.106   9.376  1.00  0.00     0.210 HD
ENDBRANCH  32  33
ENDBRANCH  25  26
ENDBRANCH   1  20
TORSDOF 6
