REMARK SMILES Cc1cc(N/N=C/c2ccncc2)nc(-c2cc(Br)cc(Br)c2[O-])n1
REMARK SMILES IDX 5 1 4 3 1 4 2 5 25 6 3 7 15 8 14 9 16 10 23 11 17 12 21 13
REMARK SMILES IDX 24 14 18 15 20 16 22 17 19 18 6 19 7 20 8 21 13 22 9 23
REMARK SMILES IDX 12 24 10 25 11 26
REMARK H PARENT 5 2
REMARK Flexibility Score: inf
ROOT
ATOM      1  N   UNL     1      -0.011   0.966   0.007  1.00  0.00    -0.261 N 
ATOM      2  H   UNL     1       0.003  -0.064   0.006  1.00  0.00     0.192 HD
ENDROOT
BRANCH   1   3
ATOM      3  C   UNL     1       1.180   1.675  -0.000  1.00  0.00     0.150 A 
ATOM      4  C   UNL     1       4.911   1.070  -0.040  1.00  0.00     0.067 C 
ATOM      5  C   UNL     1       3.567   1.752  -0.023  1.00  0.00     0.044 A 
ATOM      6  N   UNL     1       3.488   3.073  -0.016  1.00  0.00    -0.233 NA
ATOM      7  C   UNL     1       2.405   1.004  -0.015  1.00  0.00     0.072 A 
ATOM      8  C   UNL     1       2.311   3.685  -0.001  1.00  0.00     0.161 A 
ATOM      9  N   UNL     1       1.173   3.004   0.001  1.00  0.00    -0.209 NA
BRANCH   8  10
ATOM     10  C   UNL     1       2.267   5.166   0.007  1.00  0.00     0.014 A 
ATOM     11  C   UNL     1       1.037   5.832   0.016  1.00  0.00    -0.083 A 
ATOM     12  C   UNL     1       3.451   5.902  -0.001  1.00  0.00     0.027 A 
ATOM     13  C   UNL     1       1.005   7.219   0.030  1.00  0.00     0.011 A 
ATOM     14  O   UNL     1      -0.122   5.123   0.018  1.00  0.00    -0.871 OA
ATOM     15  C   UNL     1       3.404   7.281   0.006  1.00  0.00     0.019 A 
ATOM     16  C   UNL     1       2.185   7.938   0.022  1.00  0.00     0.030 A 
ATOM     17  Br  UNL     1      -0.654   8.125   0.052  1.00  0.00    -0.051 Br
ATOM     18  Br  UNL     1       5.011   8.278  -0.004  1.00  0.00    -0.051 Br
ENDBRANCH   8  10
ENDBRANCH   1   3
BRANCH   1  19
ATOM     19  N   UNL     1      -1.234   1.650   0.017  1.00  0.00    -0.182 NA
ATOM     20  C   UNL     1      -2.349   0.985   0.018  1.00  0.00     0.141 C 
BRANCH  20  21
ATOM     21  C   UNL     1      -3.636   1.705   0.029  1.00  0.00    -0.002 A 
ATOM     22  C   UNL     1      -4.851   1.008   0.030  1.00  0.00     0.030 A 
ATOM     23  C   UNL     1      -3.678   3.106   0.042  1.00  0.00     0.030 A 
ATOM     24  C   UNL     1      -6.031   1.722   0.040  1.00  0.00     0.111 A 
ATOM     25  C   UNL     1      -4.903   3.737   0.045  1.00  0.00     0.111 A 
ATOM     26  N   UNL     1      -6.024   3.041   0.047  1.00  0.00    -0.265 NA
ENDBRANCH  20  21
ENDBRANCH   1  19
TORSDOF 4
