REMARK SMILES CCc1cc2c(cc3n2C[C@@](C)(C(=O)NC2CCCCC2)N(CCC[NH+]2CCCCC2)C3=O)s1
REMARK SMILES IDX 23 1 22 2 3 3 34 4 4 5 6 6 5 7 7 8 9 9 8 10 10 11 32 12
REMARK SMILES IDX 11 13 33 14 12 15 2 16 1 17 13 18 14 19 15 20 16 22 21 23
REMARK SMILES IDX 17 24 20 25 18 26 19 27 24 28 25 29 26 30 31 31 27 32 30 34
REMARK SMILES IDX 28 35 29 36
REMARK H PARENT 15 21 26 33
REMARK Flexibility Score: inf
ROOT
ATOM      1  C   UNL     1      -2.450   6.949   1.434  1.00  0.00     0.127 C 
ENDROOT
BRANCH   1   2
ATOM      2  N   UNL     1      -2.927   7.365   2.755  1.00  0.00    -0.321 N 
ATOM      3  C   UNL     1      -4.923   8.007   8.936  1.00  0.00     0.007 A 
ATOM      4  S   UNL     1      -3.239   8.599   8.923  1.00  0.00    -0.139 S 
ATOM      5  C   UNL     1      -5.107   7.612   7.659  1.00  0.00     0.042 A 
ATOM      6  C   UNL     1      -2.875   8.287   7.215  1.00  0.00     0.053 A 
ATOM      7  C   UNL     1      -4.069   7.736   6.725  1.00  0.00     0.060 A 
ATOM      8  C   UNL     1      -1.939   8.356   6.190  1.00  0.00     0.053 A 
ATOM      9  N   UNL     1      -3.831   7.471   5.389  1.00  0.00    -0.333 N 
ATOM     10  C   UNL     1      -2.535   7.861   5.068  1.00  0.00     0.109 A 
ATOM     11  C   UNL     1      -4.726   6.868   4.398  1.00  0.00     0.161 C 
ATOM     12  C   UNL     1      -2.022   7.709   3.701  1.00  0.00     0.271 C 
ATOM     13  C   UNL     1      -4.363   7.401   3.008  1.00  0.00     0.137 C 
ATOM     14  O   UNL     1      -0.848   7.883   3.433  1.00  0.00    -0.267 OA
ATOM     15  C   UNL     1      -5.072   6.551   1.952  1.00  0.00     0.047 C 
BRANCH   3  16
ATOM     16  C   UNL     1      -5.896   7.962  10.086  1.00  0.00     0.043 C 
ATOM     17  C   UNL     1      -5.760   6.624  10.817  1.00  0.00     0.010 C 
ENDBRANCH   3  16
BRANCH  13  18
ATOM     18  C   UNL     1      -4.843   8.824   2.886  1.00  0.00     0.247 C 
ATOM     19  O   UNL     1      -5.943   9.056   2.432  1.00  0.00    -0.272 OA
ATOM     20  N   UNL     1      -4.050   9.839   3.282  1.00  0.00    -0.351 N 
ATOM     21  H   UNL     1      -3.115   9.642   3.668  1.00  0.00     0.163 HD
BRANCH  20  22
ATOM     22  C   UNL     1      -4.517  11.223   3.163  1.00  0.00     0.082 C 
ATOM     23  C   UNL     1      -3.788  12.096   4.187  1.00  0.00     0.025 C 
ATOM     24  C   UNL     1      -4.226  11.740   1.753  1.00  0.00     0.025 C 
ATOM     25  C   UNL     1      -4.276  13.541   4.063  1.00  0.00     0.002 C 
ATOM     26  C   UNL     1      -4.714  13.185   1.629  1.00  0.00     0.002 C 
ATOM     27  C   UNL     1      -3.986  14.058   2.653  1.00  0.00     0.000 C 
ENDBRANCH  20  22
ENDBRANCH  13  18
ENDBRANCH   1   2
BRANCH   1  28
ATOM     28  C   UNL     1      -2.232   5.434   1.424  1.00  0.00     0.083 C 
BRANCH  28  29
ATOM     29  C   UNL     1      -1.734   5.000   0.044  1.00  0.00     0.264 C 
BRANCH  29  30
ATOM     30  N   UNL     1      -1.525   3.546   0.035  1.00  0.00    -0.335 N 
ATOM     31  C   UNL     1      -0.804   3.109   1.238  1.00  0.00     0.262 C 
ATOM     32  C   UNL     1      -0.826   3.122  -1.185  1.00  0.00     0.262 C 
ATOM     33  H   UNL     1      -2.450   3.092   0.041  1.00  0.00     0.348 HD
ATOM     34  C   UNL     1      -0.732   1.581   1.266  1.00  0.00     0.062 C 
ATOM     35  C   UNL     1      -0.756   1.594  -1.230  1.00  0.00     0.062 C 
ATOM     36  C   UNL     1      -0.013   1.086   0.008  1.00  0.00     0.012 C 
ENDBRANCH  29  30
ENDBRANCH  28  29
ENDBRANCH   1  28
TORSDOF 7
