REMARK SMILES CCOC(=O)c1c(NC(=S)N2CCN(c3cccc(O)c3)CC2)sc2c1CCCCC2
REMARK SMILES IDX 8 1 7 3 6 4 26 5 24 6 25 7 4 8 5 9 3 10 2 11 1 12 27 13
REMARK SMILES IDX 28 14 31 16 30 17 29 18 9 20 10 21 11 22 23 23 12 24 22 25
REMARK SMILES IDX 13 26 14 27 15 28 21 29 16 30 19 31 17 32 18 33 20 34
REMARK H PARENT 8 2 20 35
REMARK Flexibility Score: 100.00
ROOT
ATOM      1  N   UNL     1      -0.061   9.335  -2.577  1.00  0.00    -0.324 N 
ATOM      2  H   UNL     1      -1.004   8.938  -2.691  1.00  0.00     0.170 HD
ENDROOT
BRANCH   1   3
ATOM      3  C   UNL     1       0.386  10.320  -3.443  1.00  0.00     0.110 A 
ATOM      4  C   UNL     1      -0.281  10.892  -4.516  1.00  0.00     0.098 A 
ATOM      5  C   UNL     1       0.414  11.925  -5.273  1.00  0.00    -0.017 A 
ATOM      6  S   UNL     1       1.915  11.132  -3.453  1.00  0.00    -0.122 S 
ATOM      7  C   UNL     1       1.663  12.202  -4.842  1.00  0.00     0.011 A 
BRANCH   4   8
ATOM      8  C   UNL     1      -1.638  10.474  -4.875  1.00  0.00     0.341 C 
ATOM      9  O   UNL     1      -2.598  11.039  -4.385  1.00  0.00    -0.246 OA
BRANCH   8  10
ATOM     10  O   UNL     1      -1.824   9.463  -5.748  1.00  0.00    -0.462 OA
BRANCH  10  11
ATOM     11  C   UNL     1      -3.196   9.103  -6.057  1.00  0.00     0.230 C 
ATOM     12  C   UNL     1      -3.206   7.945  -7.058  1.00  0.00     0.049 C 
ENDBRANCH  10  11
ENDBRANCH   8  10
ENDBRANCH   4   8
BRANCH   5  13
ATOM     13  C   UNL     1      -0.222  12.639  -6.459  1.00  0.00     0.037 C 
BRANCH  13  14
ATOM     14  C   UNL     1       0.862  13.132  -7.412  1.00  0.00     0.005 CG0
ATOM     15  G   UNL     1       1.311  14.540  -7.026  1.00  0.00     0.000 G0
ENDBRANCH  13  14
ENDBRANCH   5  13
BRANCH   7  16
ATOM     16  C   UNL     1       2.632  13.186  -5.419  1.00  0.00     0.047 C 
BRANCH  16  17
ATOM     17  C   UNL     1       1.925  14.531  -5.629  1.00  0.00     0.006 C 
BRANCH  17  18
ATOM     18  C   UNL     1       1.311  14.540  -7.026  1.00  0.00     0.001 CG0
ATOM     19  G   UNL     1       0.862  13.132  -7.412  1.00  0.00     0.000 G0
ENDBRANCH  17  18
ENDBRANCH  16  17
ENDBRANCH   7  16
ENDBRANCH   1   3
BRANCH   1  20
ATOM     20  C   UNL     1       0.739   8.896  -1.585  1.00  0.00     0.174 C 
ATOM     21  S   UNL     1       2.252   9.648  -1.310  1.00  0.00    -0.041 S 
BRANCH  20  22
ATOM     22  N   UNL     1       0.348   7.865  -0.810  1.00  0.00    -0.345 N 
ATOM     23  C   UNL     1      -0.991   7.276  -0.957  1.00  0.00     0.140 C 
ATOM     24  C   UNL     1       1.250   7.299   0.204  1.00  0.00     0.140 C 
ATOM     25  C   UNL     1      -0.842   5.758  -1.107  1.00  0.00     0.138 C 
ATOM     26  C   UNL     1       1.311   5.780   0.009  1.00  0.00     0.138 C 
ATOM     27  N   UNL     1      -0.053   5.234   0.015  1.00  0.00    -0.368 N 
BRANCH  27  28
ATOM     28  C   UNL     1      -0.032   3.837   0.004  1.00  0.00     0.040 A 
ATOM     29  C   UNL     1      -1.224   3.125   0.007  1.00  0.00     0.072 A 
ATOM     30  C   UNL     1       1.181   3.159  -0.012  1.00  0.00     0.026 A 
ATOM     31  C   UNL     1      -1.199   1.739  -0.010  1.00  0.00     0.117 A 
ATOM     32  C   UNL     1       1.200   1.778  -0.024  1.00  0.00     0.006 A 
ATOM     33  C   UNL     1       0.015   1.067  -0.021  1.00  0.00     0.046 A 
BRANCH  31  34
ATOM     34  O   UNL     1      -2.364   1.039  -0.013  1.00  0.00    -0.508 OA
ATOM     35  H   UNL     1      -2.306   0.446   0.777  1.00  0.00     0.293 HD
ENDBRANCH  31  34
ENDBRANCH  27  28
ENDBRANCH  20  22
ENDBRANCH   1  20
TORSDOF 8
