REMARK SMILES COC(=O)C1=C(C)NC(C)=C(C(=O)NCCN2CCN([C@@H](c3ccccc3)c3ccc(Cl)cc3)CC2)[C@@H]1c1ccccc1Cl
REMARK SMILES IDX 15 1 14 2 12 3 13 4 11 6 10 7 9 8 8 9 37 10 6 11 5 13 7 14
REMARK SMILES IDX 38 15 43 16 39 17 42 18 44 19 40 20 41 21 3 22 4 23 2 24
REMARK SMILES IDX 1 25 16 26 17 27 36 28 18 29 35 30 19 31 20 32 21 33 22 34
REMARK SMILES IDX 27 35 23 36 26 37 24 38 25 39 28 40 34 41 29 42 33 43 30 44
REMARK SMILES IDX 31 45 32 46
REMARK H PARENT 14 5 8 12
REMARK Flexibility Score: inf
ROOT
ATOM      1  C   UNL     1      -1.260   5.109  -2.465  1.00  0.00     0.131 C 
ENDROOT
BRANCH   1   2
ATOM      2  N   UNL     1      -1.897   5.637  -3.674  1.00  0.00    -0.351 N 
ATOM      3  C   UNL     1      -1.861   6.960  -3.932  1.00  0.00     0.249 C 
ATOM      4  O   UNL     1      -1.302   7.712  -3.163  1.00  0.00    -0.270 OA
ATOM      5  H   UNL     1      -2.372   4.998  -4.327  1.00  0.00     0.163 HD
BRANCH   3   6
ATOM      6  C   UNL     1      -2.516   7.503  -5.176  1.00  0.00     0.048 C 
ATOM      7  C   UNL     1      -2.501   5.646  -7.000  1.00  0.00     0.065 C 
ATOM      8  C   UNL     1      -1.882   6.878  -6.391  1.00  0.00     0.021 C 
ATOM      9  N   UNL     1      -0.818   7.381  -6.920  1.00  0.00    -0.362 N 
ATOM     10  C   UNL     1      -2.329   9.022  -5.230  1.00  0.00     0.097 C 
ATOM     11  C   UNL     1      -0.234   8.492  -6.436  1.00  0.00     0.023 C 
ATOM     12  H   UNL     1      -0.401   6.916  -7.739  1.00  0.00     0.166 HD
ATOM     13  C   UNL     1      -0.898   9.323  -5.603  1.00  0.00     0.068 C 
ATOM     14  C   UNL     1       1.184   8.816  -6.830  1.00  0.00     0.065 C 
BRANCH  10  15
ATOM     15  C   UNL     1      -3.255   9.608  -6.265  1.00  0.00    -0.017 A 
ATOM     16  C   UNL     1      -4.209  10.537  -5.892  1.00  0.00     0.045 A 
ATOM     17  C   UNL     1      -3.154   9.213  -7.586  1.00  0.00     0.006 A 
ATOM     18  C   UNL     1      -5.055  11.079  -6.843  1.00  0.00     0.021 A 
ATOM     19  Cl  UNL     1      -4.341  11.028  -4.232  1.00  0.00    -0.084 Cl
ATOM     20  C   UNL     1      -4.003   9.751  -8.535  1.00  0.00     0.000 A 
ATOM     21  C   UNL     1      -4.954  10.683  -8.164  1.00  0.00     0.002 A 
ENDBRANCH  10  15
BRANCH  13  22
ATOM     22  C   UNL     1      -0.253  10.473  -5.082  1.00  0.00     0.336 C 
ATOM     23  O   UNL     1       0.901  10.712  -5.384  1.00  0.00    -0.246 OA
BRANCH  22  24
ATOM     24  O   UNL     1      -0.918  11.300  -4.250  1.00  0.00    -0.466 OA
ATOM     25  C   UNL     1      -0.206  12.440  -3.761  1.00  0.00     0.282 C 
ENDBRANCH  22  24
ENDBRANCH  13  22
ENDBRANCH   3   6
ENDBRANCH   1   2
BRANCH   1  26
ATOM     26  C   UNL     1      -1.445   3.591  -2.413  1.00  0.00     0.106 C 
BRANCH  26  27
ATOM     27  N   UNL     1      -0.806   3.062  -1.200  1.00  0.00    -0.299 NA
ATOM     28  C   UNL     1      -1.495   3.536   0.008  1.00  0.00     0.100 C 
ATOM     29  C   UNL     1      -0.754   1.593  -1.231  1.00  0.00     0.100 C 
ATOM     30  C   UNL     1      -0.754   3.029   1.247  1.00  0.00     0.101 C 
ATOM     31  C   UNL     1      -0.013   1.086   0.008  1.00  0.00     0.101 C 
ATOM     32  N   UNL     1      -0.701   1.560   1.216  1.00  0.00    -0.290 NA
BRANCH  32  33
ATOM     33  C   UNL     1      -0.062   1.031   2.429  1.00  0.00     0.117 C 
BRANCH  33  34
ATOM     34  C   UNL     1      -0.716   1.633   3.645  1.00  0.00    -0.026 A 
ATOM     35  C   UNL     1       0.055   2.009   4.730  1.00  0.00     0.006 A 
ATOM     36  C   UNL     1      -2.086   1.817   3.675  1.00  0.00     0.006 A 
ATOM     37  C   UNL     1      -0.545   2.561   5.846  1.00  0.00     0.000 A 
ATOM     38  C   UNL     1      -2.686   2.366   4.792  1.00  0.00     0.000 A 
ATOM     39  C   UNL     1      -1.915   2.740   5.877  1.00  0.00     0.000 A 
ENDBRANCH  33  34
BRANCH  33  40
ATOM     40  C   UNL     1      -0.219  -0.468   2.465  1.00  0.00    -0.026 A 
ATOM     41  C   UNL     1       0.829  -1.261   2.893  1.00  0.00     0.007 A 
ATOM     42  C   UNL     1      -1.411  -1.048   2.076  1.00  0.00     0.007 A 
ATOM     43  C   UNL     1       0.687  -2.636   2.927  1.00  0.00     0.021 A 
ATOM     44  C   UNL     1      -1.553  -2.422   2.104  1.00  0.00     0.021 A 
ATOM     45  C   UNL     1      -0.505  -3.217   2.532  1.00  0.00     0.041 A 
ATOM     46  Cl  UNL     1      -0.685  -4.943   2.575  1.00  0.00    -0.084 Cl
ENDBRANCH  33  40
ENDBRANCH  32  33
ENDBRANCH  26  27
ENDBRANCH   1  26
TORSDOF 10
