REMARK SMILES Cn1c(=O)n(C)c2cc(COc3ccc(C[NH2+][C@@]45C[C@@H]6C[C@@H](C[C@@](O)(C6)C4)C5)cc3)ccc21
REMARK SMILES IDX 12 1 13 2 14 3 15 4 29 5 30 6 11 7 10 8 9 9 1 10 2 11 3 12
REMARK SMILES IDX 33 13 5 14 4 15 7 16 32 17 6 18 8 19 31 20 16 21 17 22 18 25
REMARK SMILES IDX 19 26 27 27 28 28 20 29 24 30 22 31 21 32 26 33 23 34 25 35
REMARK H PARENT 17 23 17 24 25 36
REMARK Flexibility Score: inf
ROOT
ATOM      1  C   UNL     1       1.141   5.409   1.544  1.00  0.00     0.119 A 
ATOM      2  C   UNL     1       1.125   6.260   0.450  1.00  0.00     0.047 A 
ATOM      3  C   UNL     1       1.103   7.628   0.640  1.00  0.00     0.013 A 
ATOM      4  C   UNL     1       1.108   8.149   1.921  1.00  0.00     0.006 A 
ATOM      5  C   UNL     1       1.129   7.303   3.014  1.00  0.00     0.013 A 
ATOM      6  C   UNL     1       1.146   5.934   2.829  1.00  0.00     0.047 A 
ENDROOT
BRANCH   1   7
ATOM      7  O   UNL     1       1.158   4.062   1.359  1.00  0.00    -0.489 OA
BRANCH   7   8
ATOM      8  C   UNL     1       1.151   3.593   0.010  1.00  0.00     0.265 C 
BRANCH   8   9
ATOM      9  C   UNL     1       1.172   2.086   0.002  1.00  0.00    -0.009 A 
ATOM     10  C   UNL     1       1.904  -3.134  -0.033  1.00  0.00     0.155 C 
ATOM     11  N   UNL     1       0.926  -2.044  -0.018  1.00  0.00    -0.295 N 
ATOM     12  C   UNL     1      -0.413  -2.186  -0.006  1.00  0.00     0.328 A 
ATOM     13  C   UNL     1       1.222  -0.683  -0.013  1.00  0.00     0.069 A 
ATOM     14  N   UNL     1      -0.998  -0.974   0.006  1.00  0.00    -0.295 N 
ATOM     15  O   UNL     1      -1.005  -3.250  -0.007  1.00  0.00    -0.248 OA
ATOM     16  C   UNL     1       0.002  -0.004   0.002  1.00  0.00     0.069 A 
ATOM     17  C   UNL     1       2.410   0.032  -0.021  1.00  0.00     0.029 A 
ATOM     18  C   UNL     1      -2.440  -0.718   0.021  1.00  0.00     0.155 C 
ATOM     19  C   UNL     1      -0.017   1.382   0.010  1.00  0.00     0.035 A 
ATOM     20  C   UNL     1       2.381   1.413  -0.014  1.00  0.00     0.009 A 
ENDBRANCH   8   9
ENDBRANCH   7   8
ENDBRANCH   1   7
BRANCH   4  21
ATOM     21  C   UNL     1       1.089   9.642   2.126  1.00  0.00     0.297 C 
BRANCH  21  22
ATOM     22  N   UNL     1       2.477  10.140   2.179  1.00  0.00    -0.338 N 
ATOM     23  H   UNL     1       2.956   9.913   1.296  1.00  0.00     0.347 HD
ATOM     24  H   UNL     1       2.974   9.684   2.958  1.00  0.00     0.347 HD
BRANCH  22  25
ATOM     25  C   UNL     1       2.490  11.601   2.380  1.00  0.00     0.100 C 
ATOM     26  C   UNL     1       1.790  11.946   3.696  1.00  0.00     0.072 C 
ATOM     27  C   UNL     1       3.939  12.088   2.430  1.00  0.00     0.103 C 
ATOM     28  C   UNL     1       1.762  12.285   1.221  1.00  0.00     0.072 C 
ATOM     29  C   UNL     1       1.812  13.461   3.904  1.00  0.00    -0.002 C 
ATOM     30  C   UNL     1       3.962  13.603   2.638  1.00  0.00     0.071 C 
ATOM     31  C   UNL     1       1.784  13.801   1.429  1.00  0.00    -0.002 C 
ATOM     32  C   UNL     1       1.085  14.146   2.745  1.00  0.00     0.008 C 
ATOM     33  C   UNL     1       3.262  13.948   3.954  1.00  0.00     0.039 C 
ATOM     34  C   UNL     1       3.234  14.288   1.479  1.00  0.00     0.039 C 
BRANCH  30  35
ATOM     35  O   UNL     1       5.316  14.058   2.685  1.00  0.00    -0.390 OA
ATOM     36  H   UNL     1       5.787  13.615   3.435  1.00  0.00     0.211 HD
ENDBRANCH  30  35
ENDBRANCH  22  25
ENDBRANCH  21  22
ENDBRANCH   4  21
TORSDOF 7
