REMARK SMILES COc1cc(C[NH2+][C@@H](C)[C@@H](O)c2ccccc2)cc(Br)c1OCc1ccc2c(c1)OCO2
REMARK SMILES IDX 6 1 7 2 8 5 9 6 10 7 12 8 17 9 13 10 16 11 14 12 15 13 11 14
REMARK SMILES IDX 5 16 18 17 4 18 19 19 3 20 21 21 20 22 2 23 1 24 22 25 23 26
REMARK SMILES IDX 24 27 29 28 25 29 28 30 26 31 27 32 30 33 32 34 31 35
REMARK H PARENT 7 3 7 4 11 15
REMARK Flexibility Score: inf
ROOT
ATOM      1  C   UNL     1       2.543  -2.800  -0.040  1.00  0.00     0.297 C 
ENDROOT
BRANCH   1   2
ATOM      2  N   UNL     1       2.957  -3.030  -1.430  1.00  0.00    -0.338 N 
ATOM      3  H   UNL     1       3.053  -2.124  -1.911  1.00  0.00     0.346 HD
ATOM      4  H   UNL     1       2.235  -3.586  -1.911  1.00  0.00     0.346 HD
BRANCH   2   5
ATOM      5  C   UNL     1       4.238  -3.747  -1.487  1.00  0.00     0.213 C 
ATOM      6  C   UNL     1       3.986  -5.252  -1.381  1.00  0.00     0.078 C 
BRANCH   5   7
ATOM      7  C   UNL     1       4.937  -3.439  -2.812  1.00  0.00     0.202 C 
BRANCH   7   8
ATOM      8  C   UNL     1       5.185  -1.956  -2.917  1.00  0.00    -0.014 A 
ATOM      9  C   UNL     1       6.436  -1.443  -2.631  1.00  0.00     0.006 A 
ATOM     10  C   UNL     1       4.163  -1.110  -3.305  1.00  0.00     0.006 A 
ATOM     11  C   UNL     1       6.663  -0.083  -2.726  1.00  0.00     0.000 A 
ATOM     12  C   UNL     1       4.389   0.251  -3.396  1.00  0.00     0.000 A 
ATOM     13  C   UNL     1       5.640   0.764  -3.109  1.00  0.00     0.000 A 
ENDBRANCH   7   8
BRANCH   7  14
ATOM     14  O   UNL     1       4.107  -3.860  -3.897  1.00  0.00    -0.382 OA
ATOM     15  H   UNL     1       3.243  -3.378  -3.860  1.00  0.00     0.211 HD
ENDBRANCH   7  14
ENDBRANCH   5   7
ENDBRANCH   2   5
ENDBRANCH   1   2
BRANCH   1  16
ATOM     16  C   UNL     1       1.228  -2.064  -0.022  1.00  0.00     0.011 A 
ATOM     17  C   UNL     1       0.042  -2.774  -0.014  1.00  0.00     0.029 A 
ATOM     18  C   UNL     1       1.210  -0.682  -0.019  1.00  0.00     0.060 A 
ATOM     19  C   UNL     1      -1.169  -2.103   0.001  1.00  0.00     0.064 A 
ATOM     20  C   UNL     1       0.002  -0.004   0.002  1.00  0.00     0.162 A 
ATOM     21  C   UNL     1      -1.193  -0.718   0.010  1.00  0.00     0.175 A 
ATOM     22  Br  UNL     1      -2.789  -3.078   0.012  1.00  0.00    -0.047 Br
BRANCH  20  23
ATOM     23  O   UNL     1      -0.016   1.356   0.009  1.00  0.00    -0.493 OA
ATOM     24  C   UNL     1       1.248   2.022   0.001  1.00  0.00     0.278 C 
ENDBRANCH  20  23
BRANCH  21  25
ATOM     25  O   UNL     1      -2.381  -0.057   0.025  1.00  0.00    -0.484 OA
BRANCH  25  26
ATOM     26  C   UNL     1      -2.961   0.266  -1.240  1.00  0.00     0.265 C 
BRANCH  26  27
ATOM     27  C   UNL     1      -4.264   0.991  -1.025  1.00  0.00    -0.007 A 
ATOM     28  C   UNL     1      -4.279   2.370  -0.926  1.00  0.00     0.057 A 
ATOM     29  C   UNL     1      -5.444   0.276  -0.933  1.00  0.00     0.011 A 
ATOM     30  C   UNL     1      -5.476   3.038  -0.730  1.00  0.00     0.166 A 
ATOM     31  C   UNL     1      -6.642   0.936  -0.731  1.00  0.00     0.051 A 
ATOM     32  C   UNL     1      -6.664   2.318  -0.631  1.00  0.00     0.165 A 
ATOM     33  O   UNL     1      -5.760   4.367  -0.601  1.00  0.00    -0.454 OA
ATOM     34  O   UNL     1      -7.692   3.195  -0.441  1.00  0.00    -0.454 OA
ATOM     35  C   UNL     1      -7.177   4.482  -0.832  1.00  0.00     0.468 C 
ENDBRANCH  26  27
ENDBRANCH  25  26
ENDBRANCH  21  25
ENDBRANCH   1  16
TORSDOF 10
