REMARK SMILES Cc1ccc(C)c(NC(=O)C([O-])=C(C(=O)c2ccc3ccccc3c2)[C@H]2OC(=O)c3ccccc32)c1
REMARK SMILES IDX 11 1 12 2 13 3 9 4 8 5 10 7 7 8 1 9 2 10 36 11 3 12 4 13
REMARK SMILES IDX 5 14 6 15 26 16 27 17 35 18 28 19 30 20 34 21 29 22 31 23
REMARK SMILES IDX 33 24 32 25 14 26 15 27 16 28 25 29 17 30 24 31 18 32 19 33
REMARK SMILES IDX 23 34 20 35 22 36 21 37
REMARK H PARENT 8 6
REMARK Flexibility Score: inf
ROOT
ATOM      1  C   UNL     1      -3.838   2.609   1.322  1.00  0.00    -0.030 C 
ATOM      2  O   UNL     1      -4.923   2.441   0.817  1.00  0.00    -0.868 OA
ATOM      3  C   UNL     1      -3.212   3.979   1.324  1.00  0.00     0.043 C 
ENDROOT
BRANCH   1   4
ATOM      4  C   UNL     1      -3.120   1.460   1.942  1.00  0.00     0.241 C 
ATOM      5  N   UNL     1      -3.680   0.234   1.940  1.00  0.00    -0.323 N 
ATOM      6  H   UNL     1      -4.634   0.104   1.573  1.00  0.00     0.170 HD
ATOM      7  O   UNL     1      -2.030   1.629   2.450  1.00  0.00    -0.270 OA
BRANCH   5   8
ATOM      8  C   UNL     1      -2.968  -0.860   2.436  1.00  0.00     0.044 A 
ATOM      9  C   UNL     1      -0.475  -1.611   5.177  1.00  0.00     0.044 C 
ATOM     10  C   UNL     1      -1.406  -1.783   4.005  1.00  0.00    -0.049 A 
ATOM     11  C   UNL     1      -2.105  -0.698   3.513  1.00  0.00     0.029 A 
ATOM     12  C   UNL     1      -1.556  -3.027   3.419  1.00  0.00     0.004 A 
ATOM     13  C   UNL     1      -2.410  -3.190   2.344  1.00  0.00     0.006 A 
ATOM     14  C   UNL     1      -3.116  -2.111   1.851  1.00  0.00    -0.027 A 
ATOM     15  C   UNL     1      -4.046  -2.289   0.678  1.00  0.00     0.046 C 
ENDBRANCH   5   8
ENDBRANCH   1   4
BRANCH   3  16
ATOM     16  C   UNL     1      -2.367   4.156   0.061  1.00  0.00     0.242 C 
ATOM     17  O   UNL     1      -1.729   5.463   0.067  1.00  0.00    -0.449 OA
ATOM     18  C   UNL     1      -1.255   3.139   0.035  1.00  0.00     0.012 A 
ATOM     19  C   UNL     1      -0.396   5.298   0.047  1.00  0.00     0.339 C 
ATOM     20  C   UNL     1      -0.060   3.863   0.026  1.00  0.00     0.067 A 
ATOM     21  C   UNL     1      -1.233   1.763   0.015  1.00  0.00     0.009 A 
ATOM     22  O   UNL     1       0.416   6.202   0.046  1.00  0.00    -0.246 OA
ATOM     23  C   UNL     1       1.157   3.178   0.002  1.00  0.00     0.016 A 
ATOM     24  C   UNL     1      -0.022   1.091  -0.004  1.00  0.00     0.000 A 
ATOM     25  C   UNL     1       1.167   1.799  -0.013  1.00  0.00     0.001 A 
ENDBRANCH   3  16
BRANCH   3  26
ATOM     26  C   UNL     1      -4.295   5.027   1.355  1.00  0.00     0.192 C 
ATOM     27  O   UNL     1      -5.401   4.768   0.929  1.00  0.00    -0.289 OA
BRANCH  26  28
ATOM     28  C   UNL     1      -4.012   6.362   1.902  1.00  0.00     0.023 A 
ATOM     29  C   UNL     1      -5.012   7.325   1.922  1.00  0.00     0.021 A 
ATOM     30  C   UNL     1      -2.726   6.657   2.396  1.00  0.00     0.013 A 
ATOM     31  C   UNL     1      -4.735   8.594   2.450  1.00  0.00    -0.018 A 
ATOM     32  C   UNL     1      -2.441   7.882   2.904  1.00  0.00     0.009 A 
ATOM     33  C   UNL     1      -3.436   8.878   2.944  1.00  0.00    -0.018 A 
ATOM     34  C   UNL     1      -5.723   9.595   2.493  1.00  0.00     0.009 A 
ATOM     35  C   UNL     1      -3.163  10.153   3.466  1.00  0.00     0.009 A 
ATOM     36  C   UNL     1      -5.420  10.818   3.006  1.00  0.00     0.001 A 
ATOM     37  C   UNL     1      -4.144  11.096   3.492  1.00  0.00     0.001 A 
ENDBRANCH  26  28
ENDBRANCH   3  26
TORSDOF 5
