REMARK SMILES CCOC(=O)c1c(NC(=O)CN[C@@H](c2ccc(CC)cc2)c2cccs2)sc(C(=O)NC)c1C
REMARK SMILES IDX 9 1 10 2 8 3 11 5 12 6 13 8 14 9 17 10 20 11 16 12 21 13
REMARK SMILES IDX 15 14 18 15 19 16 22 17 26 18 23 19 25 20 24 21 7 22 27 23
REMARK SMILES IDX 6 24 28 25 33 26 34 27 4 28 5 29 3 30 2 31 1 32 29 33 30 34
REMARK SMILES IDX 31 35 32 36
REMARK H PARENT 8 4 12 7 31 37
REMARK Flexibility Score: inf
ROOT
ATOM      1  C   UNL     1      -1.156  -0.694   0.009  1.00  0.00     0.238 C 
ATOM      2  O   UNL     1      -2.214  -0.102   0.023  1.00  0.00    -0.273 OA
ATOM      3  N   UNL     1       0.002  -0.004   0.002  1.00  0.00    -0.316 N 
ATOM      4  H   UNL     1       0.901  -0.507  -0.009  1.00  0.00     0.170 HD
ENDROOT
BRANCH   1   5
ATOM      5  C   UNL     1      -1.135  -2.201   0.001  1.00  0.00     0.183 C 
BRANCH   5   6
ATOM      6  N   UNL     1      -2.522  -2.703   0.012  1.00  0.00    -0.297 NA
ATOM      7  H   UNL     1      -3.018  -2.353  -0.821  1.00  0.00     0.124 HD
BRANCH   6   8
ATOM      8  C   UNL     1      -2.533  -4.178   0.004  1.00  0.00     0.125 C 
BRANCH   8   9
ATOM      9  C   UNL     1      -3.821  -4.667   0.614  1.00  0.00    -0.026 A 
ATOM     10  C   UNL     1      -6.185  -5.563   1.734  1.00  0.00    -0.048 A 
ATOM     11  C   UNL     1      -6.190  -4.463   0.896  1.00  0.00     0.004 A 
ATOM     12  C   UNL     1      -4.998  -6.214   2.012  1.00  0.00     0.004 A 
ATOM     13  C   UNL     1      -5.008  -4.012   0.341  1.00  0.00     0.006 A 
ATOM     14  C   UNL     1      -3.816  -5.766   1.452  1.00  0.00     0.006 A 
BRANCH  10  15
ATOM     15  C   UNL     1      -7.473  -6.051   2.345  1.00  0.00     0.032 C 
ATOM     16  C   UNL     1      -7.699  -5.351   3.686  1.00  0.00     0.009 C 
ENDBRANCH  10  15
ENDBRANCH   8   9
BRANCH   8  17
ATOM     17  C   UNL     1      -2.429  -4.674  -1.415  1.00  0.00     0.026 A 
ATOM     18  S   UNL     1      -3.206  -4.034  -2.890  1.00  0.00    -0.147 S 
ATOM     19  C   UNL     1      -1.726  -5.726  -1.903  1.00  0.00     0.017 A 
ATOM     20  C   UNL     1      -2.534  -5.206  -4.057  1.00  0.00     0.065 A 
ATOM     21  C   UNL     1      -1.780  -5.999  -3.257  1.00  0.00     0.012 A 
ENDBRANCH   8  17
ENDBRANCH   6   8
ENDBRANCH   5   6
ENDBRANCH   1   5
BRANCH   3  22
ATOM     22  C   UNL     1      -0.017   1.377   0.010  1.00  0.00     0.111 A 
ATOM     23  S   UNL     1      -1.387   2.439   0.021  1.00  0.00    -0.112 S 
ATOM     24  C   UNL     1       1.065   2.264   0.004  1.00  0.00     0.098 A 
ATOM     25  C   UNL     1      -0.528   4.001   0.028  1.00  0.00     0.098 A 
ATOM     26  C   UNL     1       0.786   3.622   0.013  1.00  0.00    -0.011 A 
ATOM     27  C   UNL     1       1.893   4.645   0.009  1.00  0.00     0.047 C 
BRANCH  24  28
ATOM     28  C   UNL     1       2.448   1.773  -0.011  1.00  0.00     0.341 C 
ATOM     29  O   UNL     1       3.012   1.575  -1.070  1.00  0.00    -0.246 OA
BRANCH  28  30
ATOM     30  O   UNL     1       3.094   1.542   1.150  1.00  0.00    -0.462 OA
BRANCH  30  31
ATOM     31  C   UNL     1       4.460   1.057   1.059  1.00  0.00     0.230 C 
ATOM     32  C   UNL     1       5.023   0.854   2.467  1.00  0.00     0.049 C 
ENDBRANCH  30  31
ENDBRANCH  28  30
ENDBRANCH  24  28
BRANCH  25  33
ATOM     33  C   UNL     1      -1.090   5.353   0.040  1.00  0.00     0.261 C 
ATOM     34  O   UNL     1      -0.350   6.320   0.038  1.00  0.00    -0.268 OA
ATOM     35  N   UNL     1      -2.426   5.527   0.053  1.00  0.00    -0.354 N 
ATOM     36  C   UNL     1      -2.989   6.880   0.065  1.00  0.00     0.143 C 
ATOM     37  H   UNL     1      -3.053   4.710   0.055  1.00  0.00     0.163 HD
ENDBRANCH  25  33
ENDBRANCH   3  22
TORSDOF 11
