REMARK SMILES COc1cc(OC)c(OC)cc1C[NH2+][C@H]1C[C@@H](C(=O)NCCc2ccccc2F)N(Cc2ccccc2)C1
REMARK SMILES IDX 15 1 16 2 17 3 30 4 38 5 14 6 13 9 12 10 8 11 5 12 11 13
REMARK SMILES IDX 4 14 3 15 9 16 10 17 6 18 7 19 2 20 1 21 31 22 32 23 37 24
REMARK SMILES IDX 33 25 36 26 34 27 35 28 18 29 19 30 20 31 21 33 22 34 23 35
REMARK SMILES IDX 28 36 24 37 27 38 29 39 25 40 26 41
REMARK H PARENT 14 7 14 8 20 32
REMARK Flexibility Score: inf
ROOT
ATOM      1  C   UNL     1      -1.099   5.278  -3.485  1.00  0.00     0.199 C 
ATOM      2  C   UNL     1       0.436   5.391  -3.626  1.00  0.00     0.095 C 
ATOM      3  C   UNL     1       0.935   5.158  -2.178  1.00  0.00     0.153 C 
ATOM      4  N   UNL     1      -0.090   5.845  -1.350  1.00  0.00    -0.282 NA
ATOM      5  C   UNL     1      -1.388   5.559  -1.998  1.00  0.00     0.150 C 
ENDROOT
BRANCH   1   6
ATOM      6  N   UNL     1      -1.766   6.277  -4.332  1.00  0.00    -0.339 N 
ATOM      7  H   UNL     1      -1.242   6.377  -5.213  1.00  0.00     0.346 HD
ATOM      8  H   UNL     1      -1.772   7.184  -3.844  1.00  0.00     0.346 HD
BRANCH   6   9
ATOM      9  C   UNL     1      -3.147   5.876  -4.631  1.00  0.00     0.301 C 
BRANCH   9  10
ATOM     10  C   UNL     1      -3.796   6.922  -5.500  1.00  0.00     0.052 A 
ATOM     11  C   UNL     1      -5.242   8.820  -5.732  1.00  0.00     0.161 A 
ATOM     12  C   UNL     1      -4.990   8.845  -7.101  1.00  0.00     0.164 A 
ATOM     13  C   UNL     1      -4.644   7.857  -4.936  1.00  0.00     0.063 A 
ATOM     14  C   UNL     1      -4.140   7.907  -7.663  1.00  0.00     0.097 A 
ATOM     15  C   UNL     1      -3.539   6.948  -6.862  1.00  0.00     0.131 A 
BRANCH  11  16
ATOM     16  O   UNL     1      -6.076   9.741  -5.177  1.00  0.00    -0.493 OA
ATOM     17  C   UNL     1      -6.289   9.656  -3.767  1.00  0.00     0.278 C 
ENDBRANCH  11  16
BRANCH  12  18
ATOM     18  O   UNL     1      -5.577   9.789  -7.884  1.00  0.00    -0.493 OA
ATOM     19  C   UNL     1      -5.272   9.755  -9.280  1.00  0.00     0.278 C 
ENDBRANCH  12  18
BRANCH  15  20
ATOM     20  O   UNL     1      -2.701   6.030  -7.413  1.00  0.00    -0.496 OA
ATOM     21  C   UNL     1      -2.481   6.115  -8.823  1.00  0.00     0.278 C 
ENDBRANCH  15  20
ENDBRANCH   9  10
ENDBRANCH   6   9
ENDBRANCH   1   6
BRANCH   4  22
ATOM     22  C   UNL     1      -0.070   5.347   0.032  1.00  0.00     0.121 C 
BRANCH  22  23
ATOM     23  C   UNL     1      -0.050   3.840   0.023  1.00  0.00    -0.034 A 
ATOM     24  C   UNL     1      -1.238   3.133   0.029  1.00  0.00     0.005 A 
ATOM     25  C   UNL     1       1.156   3.165   0.008  1.00  0.00     0.005 A 
ATOM     26  C   UNL     1      -1.219   1.751   0.017  1.00  0.00     0.000 A 
ATOM     27  C   UNL     1       1.175   1.783   0.000  1.00  0.00     0.000 A 
ATOM     28  C   UNL     1      -0.013   1.076   0.008  1.00  0.00     0.000 A 
ENDBRANCH  22  23
ENDBRANCH   4  22
BRANCH   3  29
ATOM     29  C   UNL     1       2.290   5.785  -1.975  1.00  0.00     0.237 C 
ATOM     30  O   UNL     1       2.417   6.721  -1.214  1.00  0.00    -0.273 OA
ATOM     31  N   UNL     1       3.361   5.306  -2.638  1.00  0.00    -0.354 N 
ATOM     32  H   UNL     1       3.253   4.510  -3.284  1.00  0.00     0.163 HD
BRANCH  31  33
ATOM     33  C   UNL     1       4.678   5.915  -2.441  1.00  0.00     0.120 C 
BRANCH  33  34
ATOM     34  C   UNL     1       5.712   5.188  -3.304  1.00  0.00     0.060 C 
BRANCH  34  35
ATOM     35  C   UNL     1       7.067   5.816  -3.101  1.00  0.00    -0.010 A 
ATOM     36  C   UNL     1       7.864   5.414  -2.043  1.00  0.00     0.126 A 
ATOM     37  C   UNL     1       7.516   6.788  -3.974  1.00  0.00     0.007 A 
ATOM     38  C   UNL     1       9.109   5.992  -1.857  1.00  0.00     0.039 A 
ATOM     39  F   UNL     1       7.428   4.460  -1.192  1.00  0.00    -0.207 F 
ATOM     40  C   UNL     1       8.757   7.368  -3.785  1.00  0.00     0.000 A 
ATOM     41  C   UNL     1       9.554   6.968  -2.728  1.00  0.00     0.003 A 
ENDBRANCH  34  35
ENDBRANCH  33  34
ENDBRANCH  31  33
ENDBRANCH   3  29
TORSDOF 12
