REMARK SMILES Cn1cc(C(=O)CSc2nnc(-c3cc4c(s3)CC[C@@H](C(C)(C)C)C4)o2)cc1C(N)=O
REMARK SMILES IDX 7 1 8 2 9 3 12 4 26 5 11 6 10 7 13 8 20 9 25 10 19 11 15 12
REMARK SMILES IDX 18 13 16 14 14 15 17 16 21 17 22 18 23 19 24 20 5 21 6 22
REMARK SMILES IDX 4 23 3 24 27 25 2 26 28 27 1 28 29 29 31 30 30 31
REMARK H PARENT 30 32 30 33
REMARK Flexibility Score: inf
ROOT
ATOM      1  C   UNL     1     -10.875   0.400   3.472  1.00  0.00     0.161 C 
ENDROOT
BRANCH   1   2
ATOM      2  S   UNL     1      -9.528   0.836   4.599  1.00  0.00    -0.057 SA
BRANCH   2   3
ATOM      3  C   UNL     1      -8.186   0.907   3.460  1.00  0.00     0.277 A 
ATOM      4  C   UNL     1      -6.222   1.138   2.589  1.00  0.00     0.258 A 
ATOM      5  O   UNL     1      -6.903   1.192   3.756  1.00  0.00    -0.410 OA
ATOM      6  N   UNL     1      -7.083   0.824   1.648  1.00  0.00    -0.106 NA
ATOM      7  N   UNL     1      -8.252   0.687   2.168  1.00  0.00    -0.101 NA
BRANCH   4   8
ATOM      8  C   UNL     1      -4.783   1.379   2.407  1.00  0.00     0.092 A 
ATOM      9  C   UNL     1      -0.483   2.344   0.396  1.00  0.00    -0.001 C 
ATOM     10  C   UNL     1      -1.766   1.574   0.080  1.00  0.00     0.040 C 
ATOM     11  C   UNL     1       0.149   1.805   1.682  1.00  0.00     0.010 C 
ATOM     12  C   UNL     1      -2.670   1.600   1.310  1.00  0.00    -0.033 A 
ATOM     13  C   UNL     1      -0.729   2.214   2.875  1.00  0.00     0.047 C 
ATOM     14  C   UNL     1      -2.154   1.894   2.537  1.00  0.00     0.009 A 
ATOM     15  C   UNL     1      -4.033   1.335   1.251  1.00  0.00     0.029 A 
ATOM     16  S   UNL     1      -3.550   1.807   3.627  1.00  0.00    -0.135 S 
BRANCH   9  17
ATOM     17  C   UNL     1       0.504   2.182  -0.761  1.00  0.00    -0.035 C 
ATOM     18  C   UNL     1       0.842   0.700  -0.940  1.00  0.00     0.011 C 
ATOM     19  C   UNL     1      -0.125   2.720  -2.048  1.00  0.00     0.011 C 
ATOM     20  C   UNL     1       1.783   2.963  -0.454  1.00  0.00     0.011 C 
ENDBRANCH   9  17
ENDBRANCH   4   8
ENDBRANCH   2   3
ENDBRANCH   1   2
BRANCH   1  21
ATOM     21  C   UNL     1     -12.161   0.281   4.248  1.00  0.00     0.174 C 
ATOM     22  O   UNL     1     -12.167   0.473   5.446  1.00  0.00    -0.293 OA
BRANCH  21  23
ATOM     23  C   UNL     1     -13.406  -0.065   3.555  1.00  0.00     0.037 A 
ATOM     24  C   UNL     1     -14.658  -0.210   4.132  1.00  0.00     0.097 A 
ATOM     25  C   UNL     1     -13.559  -0.310   2.169  1.00  0.00     0.045 A 
ATOM     26  N   UNL     1     -15.533  -0.529   3.167  1.00  0.00    -0.346 N 
ATOM     27  C   UNL     1     -14.874  -0.598   1.959  1.00  0.00     0.107 A 
ATOM     28  C   UNL     1     -16.965  -0.768   3.366  1.00  0.00     0.150 C 
BRANCH  27  29
ATOM     29  C   UNL     1     -15.486  -0.921   0.664  1.00  0.00     0.265 C 
ATOM     30  O   UNL     1     -16.692  -1.059   0.578  1.00  0.00    -0.268 OA
ATOM     31  N   UNL     1     -14.712  -1.065  -0.430  1.00  0.00    -0.364 N 
ATOM     32  H   UNL     1     -13.691  -0.949  -0.358  1.00  0.00     0.160 HD
ATOM     33  H   UNL     1     -15.141  -1.292  -1.339  1.00  0.00     0.160 HD
ENDBRANCH  27  29
ENDBRANCH  21  23
ENDBRANCH   1  21
TORSDOF 7
