REMARK SMILES CCCn1c(CCC(=O)NC[C@@H](CC)[N@@H+]2CCc3ccccc3C2)nc2cc(S(N)(=O)=O)ccc21
REMARK SMILES IDX 7 1 6 2 5 3 4 4 35 5 25 6 26 7 34 8 27 9 33 10 28 11 3 12
REMARK SMILES IDX 2 13 1 14 29 15 31 16 32 17 30 18 8 21 9 22 10 23 11 25
REMARK SMILES IDX 12 26 13 27 14 28 15 29 24 30 16 31 23 33 17 34 18 35 22 36
REMARK SMILES IDX 19 37 21 38 20 39
REMARK H PARENT 30 19 30 20 10 24 15 32
REMARK Flexibility Score: inf
ROOT
ATOM      1  C   UNL     1      -1.812  -2.295  -0.437  1.00  0.00     0.108 C 
ENDROOT
BRANCH   1   2
ATOM      2  C   UNL     1      -1.784  -1.805   1.013  1.00  0.00     0.085 C 
BRANCH   2   3
ATOM      3  C   UNL     1      -0.386  -1.367   1.367  1.00  0.00     0.110 A 
ATOM      4  N   UNL     1       0.574  -2.174   1.894  1.00  0.00    -0.328 N 
ATOM      5  C   UNL     1       1.705  -1.404   2.075  1.00  0.00     0.068 A 
ATOM      6  N   UNL     1       0.079  -0.161   1.214  1.00  0.00    -0.233 NA
ATOM      7  C   UNL     1       1.369  -0.113   1.633  1.00  0.00     0.090 A 
ATOM      8  C   UNL     1       2.979  -1.656   2.564  1.00  0.00     0.030 A 
ATOM      9  C   UNL     1       2.326   0.904   1.691  1.00  0.00     0.052 A 
ATOM     10  C   UNL     1       3.906  -0.637   2.613  1.00  0.00     0.024 A 
ATOM     11  C   UNL     1       3.575   0.637   2.176  1.00  0.00     0.084 A 
BRANCH   4  12
ATOM     12  C   UNL     1       0.433  -3.598   2.211  1.00  0.00     0.124 C 
BRANCH  12  13
ATOM     13  C   UNL     1       0.828  -4.433   0.992  1.00  0.00     0.018 C 
ATOM     14  C   UNL     1       0.682  -5.920   1.323  1.00  0.00     0.006 C 
ENDBRANCH  12  13
ENDBRANCH   4  12
BRANCH  11  15
ATOM     15  S   UNL     1       4.776   1.924   2.247  1.00  0.00     0.238 S 
ATOM     16  O   UNL     1       4.057   3.149   2.291  1.00  0.00    -0.207 OA
ATOM     17  O   UNL     1       5.711   1.552   3.251  1.00  0.00    -0.207 OA
BRANCH  15  18
ATOM     18  N   UNL     1       5.596   1.908   0.808  1.00  0.00    -0.225 NA
ATOM     19  H   UNL     1       5.843   1.011   0.366  1.00  0.00     0.137 HD
ATOM     20  H   UNL     1       5.859   2.795   0.356  1.00  0.00     0.137 HD
ENDBRANCH  15  18
ENDBRANCH  11  15
ENDBRANCH   2   3
ENDBRANCH   1   2
BRANCH   1  21
ATOM     21  C   UNL     1      -3.210  -2.733  -0.791  1.00  0.00     0.220 C 
ATOM     22  O   UNL     1      -4.096  -2.661   0.034  1.00  0.00    -0.275 OA
ATOM     23  N   UNL     1      -3.475  -3.204  -2.026  1.00  0.00    -0.350 N 
ATOM     24  H   UNL     1      -2.723  -3.265  -2.727  1.00  0.00     0.163 HD
BRANCH  23  25
ATOM     25  C   UNL     1      -4.834  -3.631  -2.370  1.00  0.00     0.180 C 
BRANCH  25  26
ATOM     26  C   UNL     1      -4.892  -4.000  -3.854  1.00  0.00     0.203 C 
BRANCH  26  27
ATOM     27  C   UNL     1      -6.310  -4.446  -4.214  1.00  0.00     0.063 C 
ATOM     28  C   UNL     1      -6.338  -4.939  -5.662  1.00  0.00     0.010 C 
ENDBRANCH  26  27
BRANCH  26  29
ATOM     29  N   UNL     1      -4.526  -2.831  -4.664  1.00  0.00    -0.327 N 
ATOM     30  C   UNL     1      -4.069  -3.238  -5.997  1.00  0.00     0.299 C 
ATOM     31  C   UNL     1      -5.654  -1.893  -4.777  1.00  0.00     0.267 C 
ATOM     32  H   UNL     1      -3.750  -2.351  -4.187  1.00  0.00     0.348 HD
ATOM     33  C   UNL     1      -3.791  -2.029  -6.851  1.00  0.00     0.010 A 
ATOM     34  C   UNL     1      -5.125  -0.557  -5.300  1.00  0.00     0.097 C 
ATOM     35  C   UNL     1      -4.285  -0.782  -6.530  1.00  0.00    -0.034 A 
ATOM     36  C   UNL     1      -3.017  -2.189  -7.991  1.00  0.00     0.010 A 
ATOM     37  C   UNL     1      -4.011   0.301  -7.351  1.00  0.00     0.004 A 
ATOM     38  C   UNL     1      -2.743  -1.110  -8.807  1.00  0.00     0.001 A 
ATOM     39  C   UNL     1      -3.242   0.139  -8.486  1.00  0.00     0.000 A 
ENDBRANCH  26  29
ENDBRANCH  25  26
ENDBRANCH  23  25
ENDBRANCH   1  21
TORSDOF 11
