REMARK SMILES Nc1c(-c2nc(-c3cccnc3)no2)nnn1-c1ccccc1C(F)(F)F
REMARK SMILES IDX 17 1 2 2 3 3 15 4 16 5 18 6 21 7 22 8 20 9 23 10 19 11 24 12
REMARK SMILES IDX 25 13 26 14 27 15 1 16 4 19 14 20 5 21 13 22 6 23 7 24 12 25
REMARK SMILES IDX 8 26 11 27 9 28 10 29
REMARK H PARENT 1 17 1 18
REMARK Flexibility Score: inf
ROOT
ATOM      1  N   UNL     1       1.163   3.488  -0.009  1.00  0.00    -0.196 N 
ATOM      2  C   UNL     1       0.062   4.290  -0.072  1.00  0.00     0.161 A 
ATOM      3  C   UNL     1       0.527   5.595  -0.008  1.00  0.00     0.195 A 
ATOM      4  N   UNL     1       1.868   5.558   0.089  1.00  0.00    -0.122 NA
ATOM      5  N   UNL     1       2.273   4.337   0.097  1.00  0.00    -0.059 NA
ENDROOT
BRANCH   1   6
ATOM      6  C   UNL     1       1.180   2.087  -0.038  1.00  0.00     0.081 A 
ATOM      7  C   UNL     1       1.216  -0.679  -0.097  1.00  0.00     0.001 A 
ATOM      8  C   UNL     1       1.879  -0.002   0.910  1.00  0.00     0.015 A 
ATOM      9  C   UNL     1       0.535   0.023  -1.075  1.00  0.00     0.002 A 
ATOM     10  C   UNL     1       1.862   1.379   0.942  1.00  0.00     0.081 A 
ATOM     11  C   UNL     1       0.515   1.404  -1.048  1.00  0.00     0.029 A 
BRANCH  10  12
ATOM     12  C   UNL     1       2.584   2.116   2.040  1.00  0.00     0.418 C 
ATOM     13  F   UNL     1       3.192   1.195   2.900  1.00  0.00    -0.166 F 
ATOM     14  F   UNL     1       3.562   2.946   1.480  1.00  0.00    -0.166 F 
ATOM     15  F   UNL     1       1.670   2.893   2.760  1.00  0.00    -0.166 F 
ENDBRANCH  10  12
ENDBRANCH   1   6
BRANCH   2  16
ATOM     16  N   UNL     1      -1.255   3.883  -0.177  1.00  0.00    -0.382 N 
ATOM     17  H   UNL     1      -1.397   2.863  -0.210  1.00  0.00     0.158 HD
ATOM     18  H   UNL     1      -2.050   4.537  -0.221  1.00  0.00     0.158 HD
ENDBRANCH   2  16
BRANCH   3  19
ATOM     19  C   UNL     1      -0.302   6.810  -0.042  1.00  0.00     0.282 A 
ATOM     20  O   UNL     1      -1.641   6.863  -0.139  1.00  0.00    -0.332 OA
ATOM     21  N   UNL     1       0.126   8.060   0.023  1.00  0.00    -0.185 NA
ATOM     22  N   UNL     1      -2.009   8.019  -0.140  1.00  0.00    -0.057 NA
ATOM     23  C   UNL     1      -0.983   8.825  -0.046  1.00  0.00     0.204 A 
BRANCH  23  24
ATOM     24  C   UNL     1      -1.030  10.308  -0.016  1.00  0.00     0.041 A 
ATOM     25  C   UNL     1       0.143  11.052   0.087  1.00  0.00     0.123 A 
ATOM     26  C   UNL     1      -2.252  10.981  -0.095  1.00  0.00     0.015 A 
ATOM     27  N   UNL     1       0.102  12.368   0.114  1.00  0.00    -0.264 NA
ATOM     28  C   UNL     1      -2.244  12.365  -0.057  1.00  0.00     0.021 A 
ATOM     29  C   UNL     1      -1.036  13.031   0.046  1.00  0.00     0.111 A 
ENDBRANCH  23  24
ENDBRANCH   3  19
TORSDOF 5
