REMARK SMILES CC[C@@H]1CCc2c(sc3nc(-c4ccc(C(=O)NCCc5cn6ccccc6n5)cc4)[nH]c(=O)c23)C1
REMARK SMILES IDX 16 1 17 2 18 3 15 5 12 6 31 7 13 8 30 9 14 10 11 11 3 12
REMARK SMILES IDX 36 13 4 14 7 15 5 16 6 17 8 18 35 19 9 20 33 21 10 22 34 23
REMARK SMILES IDX 32 24 2 26 1 27 19 28 20 29 21 30 29 31 22 32 28 33 23 34
REMARK SMILES IDX 27 35 24 36 26 37 25 38
REMARK H PARENT 18 4 32 25
REMARK Flexibility Score: inf
ROOT
ATOM      1  C   UNL     1       2.255   9.646  -2.109  1.00  0.00     0.251 C 
ATOM      2  O   UNL     1       1.424   9.410  -2.965  1.00  0.00    -0.269 OA
ATOM      3  N   UNL     1       2.524   8.728  -1.160  1.00  0.00    -0.352 N 
ATOM      4  H   UNL     1       3.228   8.928  -0.435  1.00  0.00     0.163 HD
ENDROOT
BRANCH   1   5
ATOM      5  C   UNL     1       2.969  10.941  -2.109  1.00  0.00     0.039 A 
ATOM      6  C   UNL     1       4.309  13.369  -2.110  1.00  0.00     0.017 A 
ATOM      7  C   UNL     1       4.588  12.418  -1.126  1.00  0.00     0.013 A 
ATOM      8  C   UNL     1       3.355  13.098  -3.094  1.00  0.00     0.013 A 
ATOM      9  C   UNL     1       3.919  11.214  -1.123  1.00  0.00     0.014 A 
ATOM     10  C   UNL     1       2.690  11.892  -3.093  1.00  0.00     0.014 A 
BRANCH   6  11
ATOM     11  C   UNL     1       5.024  14.662  -2.111  1.00  0.00     0.141 A 
ATOM     12  C   UNL     1       7.742  21.119  -2.495  1.00  0.00    -0.006 C 
ATOM     13  C   UNL     1       6.974  20.523  -3.684  1.00  0.00     0.050 C 
ATOM     14  C   UNL     1       8.754  20.084  -1.996  1.00  0.00     0.009 C 
ATOM     15  C   UNL     1       6.520  19.145  -3.310  1.00  0.00     0.011 A 
ATOM     16  C   UNL     1       8.021  18.924  -1.321  1.00  0.00     0.038 C 
ATOM     17  C   UNL     1       6.953  18.395  -2.273  1.00  0.00    -0.019 A 
ATOM     18  S   UNL     1       5.304  18.146  -4.125  1.00  0.00    -0.120 S 
ATOM     19  C   UNL     1       6.352  17.072  -2.115  1.00  0.00     0.080 A 
ATOM     20  C   UNL     1       5.380  16.721  -3.068  1.00  0.00     0.131 A 
ATOM     21  C   UNL     1       6.627  16.085  -1.112  1.00  0.00     0.260 A 
ATOM     22  N   UNL     1       4.759  15.550  -3.045  1.00  0.00    -0.219 NA
ATOM     23  O   UNL     1       7.454  16.300  -0.243  1.00  0.00    -0.269 OA
ATOM     24  N   UNL     1       5.956  14.918  -1.143  1.00  0.00    -0.306 N 
ATOM     25  H   UNL     1       6.149  14.205  -0.425  1.00  0.00     0.171 HD
BRANCH  12  26
ATOM     26  C   UNL     1       8.479  22.383  -2.942  1.00  0.00     0.000 C 
ATOM     27  C   UNL     1       7.461  23.453  -3.341  1.00  0.00     0.004 C 
ENDBRANCH  12  26
ENDBRANCH   6  11
ENDBRANCH   1   5
BRANCH   3  28
ATOM     28  C   UNL     1       1.816   7.446  -1.159  1.00  0.00     0.122 C 
BRANCH  28  29
ATOM     29  C   UNL     1       2.304   6.594   0.014  1.00  0.00     0.079 C 
BRANCH  29  30
ATOM     30  C   UNL     1       1.576   5.274   0.014  1.00  0.00     0.061 A 
ATOM     31  N   UNL     1       0.250   5.117   0.026  1.00  0.00    -0.234 NA
ATOM     32  C   UNL     1       2.156   4.054   0.002  1.00  0.00     0.116 A 
ATOM     33  C   UNL     1      -0.034   3.822   0.022  1.00  0.00     0.136 A 
ATOM     34  N   UNL     1       1.148   3.128   0.007  1.00  0.00    -0.307 N 
ATOM     35  C   UNL     1      -1.255   3.119   0.031  1.00  0.00     0.048 A 
ATOM     36  C   UNL     1       1.149   1.763   0.001  1.00  0.00     0.093 A 
ATOM     37  C   UNL     1      -1.240   1.758   0.018  1.00  0.00     0.005 A 
ATOM     38  C   UNL     1      -0.013   1.076   0.008  1.00  0.00     0.018 A 
ENDBRANCH  29  30
ENDBRANCH  28  29
ENDBRANCH   3  28
TORSDOF 6
