REMARK SMILES CC1=C(C(=O)OC2CCCCCC2)[C@@H](c2ccc3c(c2)OCO3)NC(=O)N1
REMARK SMILES IDX 7 1 6 2 4 3 5 4 3 5 1 6 2 7 27 8 25 9 14 11 24 12 26 13
REMARK SMILES IDX 15 15 20 16 16 17 19 18 17 19 18 20 21 21 23 22 22 23 13 24
REMARK SMILES IDX 12 25 8 27 9 28 10 29 11 30
REMARK H PARENT 27 10 24 14
REMARK Flexibility Score: 80.00
ROOT
ATOM      1  C   UNL     1       1.413   0.070  -3.925  1.00  0.00     0.177 C 
ENDROOT
BRANCH   1   2
ATOM      2  O   UNL     1       0.945   0.404  -2.616  1.00  0.00    -0.459 OA
BRANCH   2   3
ATOM      3  C   UNL     1      -0.154   1.183  -2.538  1.00  0.00     0.338 C 
ATOM      4  O   UNL     1      -0.700   1.568  -3.555  1.00  0.00    -0.246 OA
BRANCH   3   5
ATOM      5  C   UNL     1      -0.672   1.551  -1.275  1.00  0.00     0.083 C 
ATOM      6  C   UNL     1      -2.454   2.816  -2.423  1.00  0.00     0.065 C 
ATOM      7  C   UNL     1      -1.769   2.331  -1.171  1.00  0.00     0.029 C 
ATOM      8  N   UNL     1      -2.268   2.686   0.049  1.00  0.00    -0.311 N 
ATOM      9  C   UNL     1      -1.728   2.303   1.213  1.00  0.00     0.319 C 
ATOM     10  H   UNL     1      -3.108   3.282   0.076  1.00  0.00     0.171 HD
ATOM     11  C   UNL     1      -0.013   1.086   0.008  1.00  0.00     0.154 C 
ATOM     12  N   UNL     1      -0.629   1.524   1.271  1.00  0.00    -0.327 N 
ATOM     13  O   UNL     1      -2.244   2.671   2.250  1.00  0.00    -0.248 OA
ATOM     14  H   UNL     1      -0.230   1.243   2.178  1.00  0.00     0.166 HD
BRANCH  11  15
ATOM     15  C   UNL     1       1.416   1.566  -0.003  1.00  0.00    -0.017 A 
ATOM     16  C   UNL     1       2.424   0.720  -0.427  1.00  0.00     0.056 A 
ATOM     17  C   UNL     1       1.714   2.852   0.406  1.00  0.00     0.010 A 
ATOM     18  C   UNL     1       3.738   1.160  -0.439  1.00  0.00     0.166 A 
ATOM     19  C   UNL     1       3.024   3.295   0.403  1.00  0.00     0.051 A 
ATOM     20  C   UNL     1       4.040   2.454  -0.021  1.00  0.00     0.165 A 
ATOM     21  O   UNL     1       4.897   0.538  -0.804  1.00  0.00    -0.454 OA
ATOM     22  O   UNL     1       5.387   2.643  -0.126  1.00  0.00    -0.454 OA
ATOM     23  C   UNL     1       5.856   1.595  -0.994  1.00  0.00     0.468 C 
ENDBRANCH  11  15
ENDBRANCH   3   5
ENDBRANCH   2   3
ENDBRANCH   1   2
BRANCH   1  24
ATOM     24  C   UNL     1       2.861  -0.076  -3.884  1.00  0.00     0.045 C 
BRANCH  24  25
ATOM     25  C   UNL     1       3.460  -0.372  -5.274  1.00  0.00     0.004 CG0
ATOM     26  G   UNL     1       3.273  -1.835  -5.574  1.00  0.00     0.000 G0
ENDBRANCH  24  25
ENDBRANCH   1  24
BRANCH   1  27
ATOM     27  C   UNL     1       0.707  -1.218  -4.395  1.00  0.00     0.045 C 
BRANCH  27  28
ATOM     28  C   UNL     1       0.787  -1.285  -5.896  1.00  0.00     0.004 C 
BRANCH  28  29
ATOM     29  C   UNL     1       1.992  -2.112  -6.384  1.00  0.00     0.000 C 
BRANCH  29  30
ATOM     30  C   UNL     1       3.273  -1.835  -5.574  1.00  0.00     0.000 CG0
ATOM     31  G   UNL     1       3.460  -0.372  -5.274  1.00  0.00     0.000 G0
ENDBRANCH  29  30
ENDBRANCH  28  29
ENDBRANCH  27  28
ENDBRANCH   1  27
TORSDOF 4
