REMARK SMILES Cc1cc(C)c(-n2cccn2)c(C[N@@H+]2CCC[C@H]2c2ccc(C(N)=O)s2)c1
REMARK SMILES IDX 14 1 15 2 16 3 17 4 18 5 13 7 12 8 1 9 2 10 27 11 3 12 4 13
REMARK SMILES IDX 6 14 5 15 7 16 11 17 8 18 10 19 9 20 19 21 26 22 20 23 22 24
REMARK SMILES IDX 21 25 23 26 25 27 24 28
REMARK H PARENT 14 6 24 29 24 30
REMARK Flexibility Score: inf
ROOT
ATOM      1  N   UNL     1       0.380   5.812  -1.362  1.00  0.00    -0.324 N 
ATOM      2  C   UNL     1       1.824   5.686  -1.686  1.00  0.00     0.263 C 
ATOM      3  C   UNL     1       2.050   6.678  -2.848  1.00  0.00     0.068 C 
ATOM      4  C   UNL     1       0.918   7.718  -2.713  1.00  0.00     0.077 C 
ATOM      5  C   UNL     1       0.104   7.267  -1.481  1.00  0.00     0.225 C 
ATOM      6  H   UNL     1      -0.214   5.247  -1.986  1.00  0.00     0.348 HD
ENDROOT
BRANCH   1   7
ATOM      7  C   UNL     1       0.102   5.333  -0.001  1.00  0.00     0.301 C 
BRANCH   7   8
ATOM      8  C   UNL     1      -0.001   3.830  -0.009  1.00  0.00     0.032 A 
ATOM      9  C   UNL     1      -2.681   1.182  -0.241  1.00  0.00     0.044 C 
ATOM     10  C   UNL     1      -1.331   1.843  -0.124  1.00  0.00    -0.050 A 
ATOM     11  C   UNL     1      -1.237   3.222  -0.111  1.00  0.00     0.015 A 
ATOM     12  C   UNL     1      -0.190   1.067  -0.024  1.00  0.00     0.009 A 
ATOM     13  C   UNL     1       1.048   1.670   0.079  1.00  0.00    -0.025 A 
ATOM     14  C   UNL     1       1.147   3.055   0.086  1.00  0.00     0.076 A 
ATOM     15  C   UNL     1       2.292   0.824   0.181  1.00  0.00     0.047 C 
BRANCH  14  16
ATOM     16  N   UNL     1       2.403   3.669   0.190  1.00  0.00    -0.240 N 
ATOM     17  N   UNL     1       2.755   4.677   1.096  1.00  0.00    -0.177 NA
ATOM     18  C   UNL     1       3.490   3.389  -0.564  1.00  0.00     0.115 A 
ATOM     19  C   UNL     1       4.008   4.994   0.889  1.00  0.00     0.135 A 
ATOM     20  C   UNL     1       4.494   4.199  -0.155  1.00  0.00     0.042 A 
ENDBRANCH  14  16
ENDBRANCH   7   8
ENDBRANCH   1   7
BRANCH   5  21
ATOM     21  C   UNL     1      -1.366   7.507  -1.707  1.00  0.00     0.063 A 
ATOM     22  S   UNL     1      -2.463   6.610  -2.706  1.00  0.00    -0.129 S 
ATOM     23  C   UNL     1      -2.153   8.482  -1.181  1.00  0.00     0.022 A 
ATOM     24  C   UNL     1      -3.945   7.552  -2.390  1.00  0.00     0.092 A 
ATOM     25  C   UNL     1      -3.483   8.525  -1.518  1.00  0.00     0.026 A 
BRANCH  24  26
ATOM     26  C   UNL     1      -5.297   7.352  -2.919  1.00  0.00     0.258 C 
ATOM     27  O   UNL     1      -6.195   8.106  -2.593  1.00  0.00    -0.269 OA
ATOM     28  N   UNL     1      -5.546   6.333  -3.765  1.00  0.00    -0.365 N 
ATOM     29  H   UNL     1      -4.785   5.696  -4.041  1.00  0.00     0.159 HD
ATOM     30  H   UNL     1      -6.496   6.193  -4.137  1.00  0.00     0.159 HD
ENDBRANCH  24  26
ENDBRANCH   5  21
TORSDOF 5
