REMARK SMILES CC1(C)C/N=C/[C@](C)(OCc2ccccc2)C(=O)NC(C)(C)C/[NH+]=C/[C@](C)(OCc2ccccc2)C(=O)N1
REMARK SMILES IDX 21 1 20 2 22 3 19 4 17 5 18 7 7 8 8 9 6 10 5 11 4 12 2 13
REMARK SMILES IDX 1 14 3 15 38 16 36 17 37 19 9 21 10 22 11 23 16 24 12 25
REMARK SMILES IDX 15 26 13 27 14 28 23 29 24 30 25 31 26 33 27 34 28 36 29 37
REMARK SMILES IDX 30 38 35 39 31 40 34 41 32 42 33 43
REMARK H PARENT 19 6 38 18 24 32
REMARK Flexibility Score: 70.00
ROOT
ATOM      1  C   UNL     1      -1.227   1.636  -1.323  1.00  0.00     0.041 C 
ATOM      2  C   UNL     1      -0.365   1.333  -0.096  1.00  0.00     0.093 C 
ATOM      3  C   UNL     1      -1.072   1.827   1.167  1.00  0.00     0.041 C 
ENDROOT
BRANCH   2   4
ATOM      4  N   UNL     1       0.944   2.010  -0.229  1.00  0.00    -0.342 N 
ATOM      5  C   UNL     1       0.984   3.309   0.187  1.00  0.00     0.258 C 
ATOM      6  H   UNL     1       1.772   1.531  -0.611  1.00  0.00     0.164 HD
ATOM      7  O   UNL     1      -0.008   3.845   0.634  1.00  0.00    -0.271 OA
BRANCH   5   8
ATOM      8  C   UNL     1       2.282   4.067   0.081  1.00  0.00     0.178 C 
ATOM      9  C   UNL     1       3.007   3.660  -1.203  1.00  0.00     0.059 C 
BRANCH   8  10
ATOM     10  C   UNL     1       3.150   3.749   1.269  1.00  0.00     0.122 C 
ATOM     11  N   UNL     1       4.117   2.897   1.140  1.00  0.00    -0.292 NA
BRANCH  11  12
ATOM     12  C   UNL     1       4.917   2.647   2.359  1.00  0.00     0.169 C 
BRANCH  12  13
ATOM     13  C   UNL     1       5.127   1.139   2.509  1.00  0.00     0.054 C 
ATOM     14  C   UNL     1       5.950   0.856   3.767  1.00  0.00     0.036 C 
ATOM     15  C   UNL     1       5.859   0.596   1.280  1.00  0.00     0.036 C 
BRANCH  13  16
ATOM     16  N   UNL     1       3.796   0.489   2.625  1.00  0.00    -0.346 N 
ATOM     17  C   UNL     1       3.784  -0.829   2.245  1.00  0.00     0.262 CG0
ATOM     18  H   UNL     1       2.957   0.984   2.961  1.00  0.00     0.164 HD
ATOM     19  O   UNL     1       4.798  -1.376   1.867  1.00  0.00    -0.271 OA
ATOM     20  G   UNL     1       2.479  -1.581   2.309  1.00  0.00     0.000 G0
ENDBRANCH  13  16
ENDBRANCH  12  13
ENDBRANCH  11  12
ENDBRANCH   8  10
BRANCH   8  21
ATOM     21  O   UNL     1       2.013   5.470   0.051  1.00  0.00    -0.355 OA
BRANCH  21  22
ATOM     22  C   UNL     1       3.182   6.285  -0.051  1.00  0.00     0.197 C 
BRANCH  22  23
ATOM     23  C   UNL     1       2.782   7.737  -0.075  1.00  0.00    -0.022 A 
ATOM     24  C   UNL     1       2.675   8.444   1.109  1.00  0.00     0.006 A 
ATOM     25  C   UNL     1       2.528   8.365  -1.280  1.00  0.00     0.006 A 
ATOM     26  C   UNL     1       2.308   9.777   1.087  1.00  0.00     0.000 A 
ATOM     27  C   UNL     1       2.156   9.696  -1.301  1.00  0.00     0.000 A 
ATOM     28  C   UNL     1       2.049  10.403  -0.118  1.00  0.00     0.000 A 
ENDBRANCH  22  23
ENDBRANCH  21  22
ENDBRANCH   8  21
ENDBRANCH   5   8
ENDBRANCH   2   4
BRANCH   2  29
ATOM     29  C   UNL     1      -0.130  -0.176   0.006  1.00  0.00     0.375 C 
BRANCH  29  30
ATOM     30  N   UNL     1       0.608  -0.452   1.266  1.00  0.00    -0.246 N 
ATOM     31  C   UNL     1       1.639  -1.232   1.111  1.00  0.00     0.317 C 
ATOM     32  H   UNL     1       0.330  -0.061   2.177  1.00  0.00     0.445 HD
BRANCH  31  33
ATOM     33  C   UNL     1       2.479  -1.581   2.309  1.00  0.00     0.220 CG0
ATOM     34  C   UNL     1       2.756  -3.085   2.317  1.00  0.00     0.065 C 
ATOM     35  G   UNL     1       3.784  -0.829   2.245  1.00  0.00     0.000 G0
BRANCH  33  36
ATOM     36  O   UNL     1       1.780  -1.219   3.502  1.00  0.00    -0.351 OA
BRANCH  36  37
ATOM     37  C   UNL     1       0.523  -1.880   3.662  1.00  0.00     0.198 C 
BRANCH  37  38
ATOM     38  C   UNL     1      -0.123  -1.427   4.946  1.00  0.00    -0.022 A 
ATOM     39  C   UNL     1      -0.962  -0.328   4.948  1.00  0.00     0.006 A 
ATOM     40  C   UNL     1       0.119  -2.113   6.122  1.00  0.00     0.006 A 
ATOM     41  C   UNL     1      -1.554   0.087   6.125  1.00  0.00     0.000 A 
ATOM     42  C   UNL     1      -0.469  -1.694   7.300  1.00  0.00     0.000 A 
ATOM     43  C   UNL     1      -1.308  -0.595   7.302  1.00  0.00     0.000 A 
ENDBRANCH  37  38
ENDBRANCH  36  37
ENDBRANCH  33  36
ENDBRANCH  31  33
ENDBRANCH  29  30
ENDBRANCH   2  29
TORSDOF 6
