REMARK SMILES Nn1c(SCC(=O)N2CCc3[nH]c4ccccc4c3C2)nc2scc(-c3ccccc3)c2c1=O
REMARK SMILES IDX 5 1 4 2 3 3 25 4 32 5 24 6 22 7 33 8 23 9 21 10 34 11 2 12
REMARK SMILES IDX 26 13 29 14 30 15 28 16 31 17 27 18 1 19 6 22 7 23 8 24
REMARK SMILES IDX 20 25 9 26 19 27 10 28 11 29 18 30 12 31 13 32 17 33 14 35
REMARK SMILES IDX 16 36 15 37
REMARK H PARENT 1 20 1 21 12 34
REMARK Flexibility Score: inf
ROOT
ATOM      1  C   UNL     1       0.943   3.033  -2.221  1.00  0.00     0.178 C 
ENDROOT
BRANCH   1   2
ATOM      2  S   UNL     1       1.859   3.998  -3.447  1.00  0.00    -0.076 SA
BRANCH   2   3
ATOM      3  C   UNL     1       0.612   4.192  -4.677  1.00  0.00     0.191 A 
ATOM      4  C   UNL     1      -2.493   4.543  -7.484  1.00  0.00     0.008 A 
ATOM      5  C   UNL     1      -1.336   4.494  -6.596  1.00  0.00     0.086 A 
ATOM      6  C   UNL     1      -3.638   3.933  -7.097  1.00  0.00     0.076 A 
ATOM      7  C   UNL     1      -1.539   3.796  -5.393  1.00  0.00     0.132 A 
ATOM      8  C   UNL     1      -0.034   5.054  -6.779  1.00  0.00     0.282 A 
ATOM      9  S   UNL     1      -3.224   3.251  -5.503  1.00  0.00    -0.123 S 
ATOM     10  N   UNL     1      -0.579   3.661  -4.486  1.00  0.00    -0.211 NA
ATOM     11  O   UNL     1       0.233   5.678  -7.792  1.00  0.00    -0.267 OA
ATOM     12  N   UNL     1       0.893   4.886  -5.818  1.00  0.00    -0.202 N 
BRANCH   4  13
ATOM     13  C   UNL     1      -2.416   5.248  -8.786  1.00  0.00    -0.017 A 
ATOM     14  C   UNL     1      -2.274   6.564 -11.217  1.00  0.00     0.000 A 
ATOM     15  C   UNL     1      -1.853   7.201 -10.064  1.00  0.00     0.001 A 
ATOM     16  C   UNL     1      -2.766   5.272 -11.161  1.00  0.00     0.001 A 
ATOM     17  C   UNL     1      -1.927   6.552  -8.848  1.00  0.00     0.009 A 
ATOM     18  C   UNL     1      -2.839   4.611  -9.952  1.00  0.00     0.009 A 
ENDBRANCH   4  13
BRANCH  12  19
ATOM     19  N   UNL     1       2.139   5.420  -5.989  1.00  0.00    -0.334 N 
ATOM     20  H   UNL     1       2.369   5.946  -6.843  1.00  0.00     0.178 HD
ATOM     21  H   UNL     1       2.853   5.294  -5.256  1.00  0.00     0.178 HD
ENDBRANCH  12  19
ENDBRANCH   2   3
ENDBRANCH   1   2
BRANCH   1  22
ATOM     22  C   UNL     1       1.836   2.740  -1.043  1.00  0.00     0.233 C 
ATOM     23  O   UNL     1       2.979   3.144  -1.034  1.00  0.00    -0.274 OA
BRANCH  22  24
ATOM     24  N   UNL     1       1.364   2.028  -0.000  1.00  0.00    -0.337 N 
ATOM     25  C   UNL     1       2.220   1.729   1.162  1.00  0.00     0.157 C 
ATOM     26  C   UNL     1      -0.019   1.528   0.010  1.00  0.00     0.126 C 
ATOM     27  C   UNL     1       2.001   0.280   1.523  1.00  0.00     0.000 A 
ATOM     28  C   UNL     1       0.002  -0.004   0.002  1.00  0.00     0.075 C 
ATOM     29  C   UNL     1       1.016  -0.488   1.011  1.00  0.00     0.023 A 
ATOM     30  C   UNL     1       2.757  -0.545   2.442  1.00  0.00     0.005 A 
ATOM     31  N   UNL     1       1.089  -1.748   1.547  1.00  0.00    -0.358 N 
ATOM     32  C   UNL     1       2.137  -1.821   2.419  1.00  0.00     0.046 A 
ATOM     33  C   UNL     1       3.871  -0.293   3.248  1.00  0.00     0.011 A 
ATOM     34  H   UNL     1       0.450  -2.525   1.324  1.00  0.00     0.166 HD
ATOM     35  C   UNL     1       2.628  -2.861   3.205  1.00  0.00     0.026 A 
ATOM     36  C   UNL     1       4.333  -1.336   4.011  1.00  0.00     0.001 A 
ATOM     37  C   UNL     1       3.732  -2.584   3.993  1.00  0.00     0.002 A 
ENDBRANCH  22  24
ENDBRANCH   1  22
TORSDOF 6
