REMARK SMILES COC(=O)c1ccc2[nH]c3c(c2c1)CN(C(=O)NC1CC[NH+](Cc2ccccc2)CC1)CC3
REMARK SMILES IDX 16 1 17 2 18 3 15 5 5 6 13 7 6 8 12 9 7 10 8 11 11 12 9 13
REMARK SMILES IDX 14 14 10 15 33 17 32 18 3 19 4 20 2 21 1 22 19 23 31 24
REMARK SMILES IDX 20 25 30 26 21 27 22 28 23 30 24 31 29 32 25 33 28 34 26 35
REMARK SMILES IDX 27 36
REMARK H PARENT 18 4 9 16 22 29
REMARK Flexibility Score: inf
ROOT
ATOM      1  C   UNL     1      -0.014   1.212   0.009  1.00  0.00     0.317 C 
ATOM      2  O   UNL     1       0.034  -0.003  -0.000  1.00  0.00    -0.249 OA
ATOM      3  N   UNL     1      -1.208   1.838   0.024  1.00  0.00    -0.335 N 
ATOM      4  H   UNL     1      -1.251   2.865  -0.046  1.00  0.00     0.165 HD
ENDROOT
BRANCH   1   5
ATOM      5  N   UNL     1       1.125   1.932  -0.002  1.00  0.00    -0.320 N 
ATOM      6  C   UNL     1       2.221   7.385  -2.356  1.00  0.00     0.060 A 
ATOM      7  C   UNL     1       1.714   6.328  -1.593  1.00  0.00     0.026 A 
ATOM      8  C   UNL     1       3.330   7.219  -3.192  1.00  0.00     0.018 A 
ATOM      9  C   UNL     1       2.370   5.103  -1.711  1.00  0.00     0.006 A 
ATOM     10  C   UNL     1       3.981   6.020  -3.314  1.00  0.00     0.027 A 
ATOM     11  C   UNL     1       3.496   4.947  -2.564  1.00  0.00     0.046 A 
ATOM     12  C   UNL     1       2.152   3.808  -1.101  1.00  0.00     0.000 A 
ATOM     13  N   UNL     1       3.906   3.653  -2.460  1.00  0.00    -0.358 N 
ATOM     14  C   UNL     1       1.091   3.401  -0.107  1.00  0.00     0.159 C 
ATOM     15  C   UNL     1       3.096   2.974  -1.586  1.00  0.00     0.023 A 
ATOM     16  H   UNL     1       4.706   3.244  -2.964  1.00  0.00     0.166 HD
ATOM     17  C   UNL     1       3.213   1.516  -1.208  1.00  0.00     0.076 C 
ATOM     18  C   UNL     1       2.436   1.273   0.096  1.00  0.00     0.128 C 
BRANCH   6  19
ATOM     19  C   UNL     1       1.571   8.707  -2.275  1.00  0.00     0.337 C 
ATOM     20  O   UNL     1       0.607   8.867  -1.553  1.00  0.00    -0.246 OA
BRANCH  19  21
ATOM     21  O   UNL     1       2.046   9.737  -3.003  1.00  0.00    -0.465 OA
ATOM     22  C   UNL     1       1.357  11.008  -2.874  1.00  0.00     0.282 C 
ENDBRANCH  19  21
ENDBRANCH   6  19
ENDBRANCH   1   5
BRANCH   3  23
ATOM     23  C   UNL     1      -2.443   1.059   0.139  1.00  0.00     0.095 C 
ATOM     24  C   UNL     1      -3.544   1.934   0.745  1.00  0.00     0.086 C 
ATOM     25  C   UNL     1      -2.882   0.588  -1.250  1.00  0.00     0.086 C 
ATOM     26  C   UNL     1      -4.848   1.134   0.806  1.00  0.00     0.264 C 
ATOM     27  C   UNL     1      -4.204  -0.173  -1.130  1.00  0.00     0.264 C 
ATOM     28  N   UNL     1      -5.226   0.706  -0.547  1.00  0.00    -0.331 N 
ATOM     29  H   UNL     1      -5.289   1.548  -1.136  1.00  0.00     0.348 HD
BRANCH  28  30
ATOM     30  C   UNL     1      -6.542   0.055  -0.544  1.00  0.00     0.299 C 
BRANCH  30  31
ATOM     31  C   UNL     1      -7.005  -0.148  -1.964  1.00  0.00     0.006 A 
ATOM     32  C   UNL     1      -6.686  -1.314  -2.635  1.00  0.00     0.009 A 
ATOM     33  C   UNL     1      -7.752   0.829  -2.594  1.00  0.00     0.009 A 
ATOM     34  C   UNL     1      -7.111  -1.500  -3.937  1.00  0.00     0.001 A 
ATOM     35  C   UNL     1      -8.172   0.645  -3.898  1.00  0.00     0.001 A 
ATOM     36  C   UNL     1      -7.854  -0.521  -4.569  1.00  0.00     0.000 A 
ENDBRANCH  30  31
ENDBRANCH  28  30
ENDBRANCH   3  23
TORSDOF 6
