REMARK SMILES O=C(c1c[nH]c2ccccc12)[C@@H](O)[C@H](c1ccc(Cl)cc1)[NH+]1CCC(Cc2ccccc2)CC1
REMARK SMILES IDX 14 1 22 2 25 3 33 4 24 5 34 6 23 7 26 9 27 10 30 11 31 12
REMARK SMILES IDX 29 13 32 14 28 15 15 16 21 17 16 18 20 19 17 20 18 21 19 22
REMARK SMILES IDX 12 23 2 24 1 25 3 26 11 27 4 28 6 29 10 30 5 31 7 32 9 33
REMARK SMILES IDX 8 35 13 36
REMARK H PARENT 22 8 5 34 13 37
REMARK Flexibility Score: inf
ROOT
ATOM      1  C   UNL     1      -0.569   4.266   1.421  1.00  0.00     0.252 C 
ENDROOT
BRANCH   1   2
ATOM      2  N   UNL     1      -0.228   5.692   1.244  1.00  0.00    -0.326 N 
ATOM      3  C   UNL     1       1.503   8.005   1.371  1.00  0.00     0.004 C 
ATOM      4  C   UNL     1       0.351   7.795   2.358  1.00  0.00     0.065 C 
ATOM      5  C   UNL     1       1.164   7.313   0.048  1.00  0.00     0.065 C 
ATOM      6  C   UNL     1       0.118   6.295   2.549  1.00  0.00     0.263 C 
ATOM      7  C   UNL     1       0.907   5.827   0.306  1.00  0.00     0.263 C 
ATOM      8  H   UNL     1      -1.043   6.186   0.855  1.00  0.00     0.348 HD
BRANCH   3   9
ATOM      9  C   UNL     1       1.701   9.503   1.129  1.00  0.00     0.039 C 
BRANCH   9  10
ATOM     10  C   UNL     1       2.154  10.163   2.406  1.00  0.00    -0.048 A 
ATOM     11  C   UNL     1       2.985  11.375   4.748  1.00  0.00     0.000 A 
ATOM     12  C   UNL     1       1.636  11.272   4.463  1.00  0.00     0.000 A 
ATOM     13  C   UNL     1       3.918  10.871   3.861  1.00  0.00     0.000 A 
ATOM     14  C   UNL     1       1.220  10.671   3.290  1.00  0.00     0.004 A 
ATOM     15  C   UNL     1       3.503  10.266   2.690  1.00  0.00     0.004 A 
ENDBRANCH   9  10
ENDBRANCH   3   9
ENDBRANCH   1   2
BRANCH   1  16
ATOM     16  C   UNL     1      -1.678   4.149   2.435  1.00  0.00     0.013 A 
ATOM     17  C   UNL     1      -1.658   3.128   3.366  1.00  0.00     0.011 A 
ATOM     18  C   UNL     1      -2.711   5.067   2.437  1.00  0.00     0.011 A 
ATOM     19  C   UNL     1      -2.675   3.020   4.296  1.00  0.00     0.021 A 
ATOM     20  C   UNL     1      -3.732   4.958   3.363  1.00  0.00     0.021 A 
ATOM     21  C   UNL     1      -3.712   3.936   4.295  1.00  0.00     0.041 A 
ATOM     22  Cl  UNL     1      -4.990   3.802   5.464  1.00  0.00    -0.084 Cl
ENDBRANCH   1  16
BRANCH   1  23
ATOM     23  C   UNL     1      -1.042   3.700   0.081  1.00  0.00     0.249 C 
BRANCH  23  24
ATOM     24  C   UNL     1      -1.389   2.243   0.244  1.00  0.00     0.199 C 
ATOM     25  O   UNL     1      -2.551   1.895   0.278  1.00  0.00    -0.291 OA
BRANCH  24  26
ATOM     26  C   UNL     1      -0.357   1.278   0.359  1.00  0.00     0.046 A 
ATOM     27  C   UNL     1      -0.521  -0.180   0.523  1.00  0.00     0.010 A 
ATOM     28  C   UNL     1       1.001   1.511   0.333  1.00  0.00     0.095 A 
ATOM     29  C   UNL     1       0.779  -0.707   0.583  1.00  0.00     0.046 A 
ATOM     30  C   UNL     1      -1.623  -1.024   0.618  1.00  0.00     0.011 A 
ATOM     31  N   UNL     1       1.663   0.346   0.465  1.00  0.00    -0.360 N 
ATOM     32  C   UNL     1       0.951  -2.079   0.738  1.00  0.00     0.027 A 
ATOM     33  C   UNL     1      -1.432  -2.381   0.771  1.00  0.00     0.001 A 
ATOM     34  H   UNL     1       2.689   0.253   0.476  1.00  0.00     0.166 HD
ATOM     35  C   UNL     1      -0.149  -2.904   0.831  1.00  0.00     0.002 A 
ENDBRANCH  24  26
ENDBRANCH  23  24
BRANCH  23  36
ATOM     36  O   UNL     1      -2.198   4.418  -0.357  1.00  0.00    -0.379 OA
ATOM     37  H   UNL     1      -1.971   5.376  -0.465  1.00  0.00     0.211 HD
ENDBRANCH  23  36
ENDBRANCH   1  23
TORSDOF 8
