REMARK SMILES COc1cccc([C@@H]2C3=C(C[C@H](c4cccs4)CC3=O)N=C(C)C2C(=O)Nc2ccccn2)c1
REMARK SMILES IDX 23 1 22 2 24 3 8 4 9 5 10 6 21 7 11 8 12 9 18 10 19 11 20 12
REMARK SMILES IDX 25 13 26 14 27 15 28 17 33 18 29 19 32 20 30 21 31 22 7 23
REMARK SMILES IDX 34 24 6 25 3 26 5 27 4 28 2 29 1 30 13 31 17 32 14 33 16 34
REMARK SMILES IDX 15 35
REMARK H PARENT 27 16
REMARK Flexibility Score: inf
ROOT
ATOM      1  C   UNL     1      -3.484   7.290   0.002  1.00  0.00     0.062 C 
ATOM      2  C   UNL     1      -2.168   8.011  -0.135  1.00  0.00     0.029 C 
ATOM      3  C   UNL     1      -1.022   7.311  -0.161  1.00  0.00     0.135 C 
ATOM      4  C   UNL     1       0.306   7.994  -0.285  1.00  0.00     0.073 C 
ATOM      5  C   UNL     1       0.143   9.405  -0.797  1.00  0.00     0.025 C 
ATOM      6  C   UNL     1      -1.056  10.023  -0.744  1.00  0.00     0.048 C 
ATOM      7  N   UNL     1      -2.148   9.376  -0.231  1.00  0.00    -0.261 NA
ATOM      8  C   UNL     1      -1.227  11.434  -1.248  1.00  0.00     0.066 C 
ATOM      9  C   UNL     1       0.078  12.207  -1.078  1.00  0.00     0.043 C 
ATOM     10  C   UNL     1       1.188  11.470  -1.835  1.00  0.00     0.090 C 
ATOM     11  C   UNL     1       1.271  10.056  -1.327  1.00  0.00     0.161 C 
ATOM     12  O   UNL     1       2.332   9.466  -1.375  1.00  0.00    -0.294 OA
ENDROOT
BRANCH   3  13
ATOM     13  C   UNL     1      -1.070   5.898  -0.068  1.00  0.00     0.235 C 
ATOM     14  O   UNL     1      -2.143   5.324  -0.068  1.00  0.00    -0.274 OA
ATOM     15  N   UNL     1       0.073   5.190   0.022  1.00  0.00    -0.310 N 
ATOM     16  H   UNL     1       0.977   5.679   0.102  1.00  0.00     0.171 HD
BRANCH  15  17
ATOM     17  C   UNL     1       0.033   3.798   0.007  1.00  0.00     0.132 A 
ATOM     18  N   UNL     1      -1.135   3.175   0.009  1.00  0.00    -0.239 NA
ATOM     19  C   UNL     1       1.221   3.075  -0.010  1.00  0.00     0.047 A 
ATOM     20  C   UNL     1      -1.218   1.859  -0.005  1.00  0.00     0.113 A 
ATOM     21  C   UNL     1       1.167   1.692  -0.019  1.00  0.00     0.005 A 
ATOM     22  C   UNL     1      -0.079   1.078  -0.022  1.00  0.00     0.020 A 
ENDBRANCH  15  17
ENDBRANCH   3  13
BRANCH   4  23
ATOM     23  C   UNL     1       0.966   8.027   1.069  1.00  0.00    -0.035 A 
ATOM     24  C   UNL     1       2.190   7.416   1.255  1.00  0.00     0.050 A 
ATOM     25  C   UNL     1       0.347   8.674   2.123  1.00  0.00     0.004 A 
ATOM     26  C   UNL     1       2.797   7.446   2.502  1.00  0.00     0.119 A 
ATOM     27  C   UNL     1       0.948   8.701   3.368  1.00  0.00     0.004 A 
ATOM     28  C   UNL     1       2.172   8.091   3.560  1.00  0.00     0.046 A 
BRANCH  26  29
ATOM     29  O   UNL     1       4.003   6.846   2.687  1.00  0.00    -0.497 OA
ATOM     30  C   UNL     1       4.568   6.917   3.998  1.00  0.00     0.278 C 
ENDBRANCH  26  29
ENDBRANCH   4  23
BRANCH   9  31
ATOM     31  C   UNL     1      -0.078  13.598  -1.636  1.00  0.00     0.008 A 
ATOM     32  S   UNL     1      -0.464  14.103  -3.304  1.00  0.00    -0.149 S 
ATOM     33  C   UNL     1       0.044  14.790  -1.003  1.00  0.00     0.015 A 
ATOM     34  C   UNL     1      -0.446  15.869  -3.043  1.00  0.00     0.065 A 
ATOM     35  C   UNL     1      -0.144  15.954  -1.725  1.00  0.00     0.012 A 
ENDBRANCH   9  31
TORSDOF 5
