REMARK SMILES CC(C)(C)C1=C2C=C(C[NH2+]C3CCCC3)C(=O)N=C2N(c2ccc(Cl)cc2)[NH2+]1
REMARK SMILES IDX 9 1 8 2 5 3 28 4 6 5 20 6 19 9 7 10 18 11 16 12 17 13 2 14
REMARK SMILES IDX 1 15 3 16 4 17 21 18 27 19 22 20 26 21 23 22 24 23 25 24
REMARK SMILES IDX 10 25 11 28 15 29 12 30 14 31 13 32
REMARK H PARENT 28 7 28 8 10 26 10 27
REMARK Flexibility Score: inf
ROOT
ATOM      1  C   UNL     1      -0.437   1.885   3.637  1.00  0.00     0.303 C 
ENDROOT
BRANCH   1   2
ATOM      2  C   UNL     1       0.567   2.274   4.691  1.00  0.00     0.074 C 
ATOM      3  C   UNL     1       1.654   4.933   7.082  1.00  0.00     0.147 C 
ATOM      4  N   UNL     1       2.729   4.715   7.856  1.00  0.00    -0.208 N 
ATOM      5  C   UNL     1       1.447   3.812   6.284  1.00  0.00     0.083 C 
ATOM      6  N   UNL     1       3.246   3.443   7.578  1.00  0.00    -0.171 N 
ATOM      7  H   UNL     1       2.455   4.765   8.848  1.00  0.00     0.382 HD
ATOM      8  H   UNL     1       3.446   5.427   7.659  1.00  0.00     0.382 HD
ATOM      9  C   UNL     1       2.460   2.869   6.603  1.00  0.00     0.199 C 
ATOM     10  C   UNL     1       0.488   3.489   5.295  1.00  0.00     0.033 C 
ATOM     11  N   UNL     1       2.499   1.704   5.985  1.00  0.00    -0.185 NA
ATOM     12  C   UNL     1       1.598   1.381   5.053  1.00  0.00     0.280 C 
ATOM     13  O   UNL     1       1.668   0.291   4.504  1.00  0.00    -0.267 OA
BRANCH   3  14
ATOM     14  C   UNL     1       0.813   6.183   7.078  1.00  0.00     0.039 C 
ATOM     15  C   UNL     1       1.371   7.177   8.098  1.00  0.00     0.022 C 
ATOM     16  C   UNL     1       0.842   6.812   5.684  1.00  0.00     0.022 C 
ATOM     17  C   UNL     1      -0.629   5.829   7.447  1.00  0.00     0.022 C 
ENDBRANCH   3  14
BRANCH   6  18
ATOM     18  C   UNL     1       4.362   2.859   8.184  1.00  0.00     0.096 A 
ATOM     19  C   UNL     1       5.524   3.599   8.362  1.00  0.00     0.033 A 
ATOM     20  C   UNL     1       4.309   1.539   8.615  1.00  0.00     0.033 A 
ATOM     21  C   UNL     1       6.626   3.019   8.961  1.00  0.00     0.023 A 
ATOM     22  C   UNL     1       5.415   0.963   9.209  1.00  0.00     0.023 A 
ATOM     23  C   UNL     1       6.572   1.703   9.384  1.00  0.00     0.041 A 
ATOM     24  Cl  UNL     1       7.958   0.978  10.137  1.00  0.00    -0.084 Cl
ENDBRANCH   6  18
ENDBRANCH   1   2
BRANCH   1  25
ATOM     25  N   UNL     1       0.199   1.973   2.309  1.00  0.00    -0.340 N 
ATOM     26  H   UNL     1       1.008   1.337   2.274  1.00  0.00     0.346 HD
ATOM     27  H   UNL     1       0.521   2.938   2.148  1.00  0.00     0.346 HD
BRANCH  25  28
ATOM     28  C   UNL     1      -0.763   1.597   1.255  1.00  0.00     0.182 C 
ATOM     29  C   UNL     1      -1.531   2.845   0.750  1.00  0.00     0.065 C 
ATOM     30  C   UNL     1      -0.013   1.086   0.008  1.00  0.00     0.065 C 
ATOM     31  C   UNL     1      -1.978   2.421  -0.670  1.00  0.00     0.006 C 
ATOM     32  C   UNL     1      -0.784   1.609  -1.216  1.00  0.00     0.006 C 
ENDBRANCH  25  28
ENDBRANCH   1  25
TORSDOF 5
