REMARK SMILES O=C(NC1CC[NH+](Cc2ccccc2)CC1)c1ccc2c(c1)sc1nc(-c3ccc(F)cc3)cn12
REMARK SMILES IDX 6 1 5 2 4 3 16 4 15 5 7 6 8 8 9 9 12 10 13 11 11 12 14 13
REMARK SMILES IDX 10 14 3 15 2 16 1 18 17 19 22 20 18 21 21 22 19 23 20 24
REMARK SMILES IDX 23 25 35 26 24 27 34 28 25 29 26 30 27 31 33 32 28 33 32 34
REMARK SMILES IDX 29 35 30 36 31 37
REMARK H PARENT 7 7 3 17
REMARK Flexibility Score: inf
ROOT
ATOM      1  C   UNL     1      -1.255  -6.380   0.534  1.00  0.00     0.264 C 
ATOM      2  C   UNL     1      -1.241  -4.851   0.600  1.00  0.00     0.086 C 
ATOM      3  C   UNL     1       0.059  -4.331  -0.020  1.00  0.00     0.093 C 
ATOM      4  C   UNL     1       0.165  -4.835  -1.462  1.00  0.00     0.086 C 
ATOM      5  C   UNL     1       0.110  -6.364  -1.468  1.00  0.00     0.264 C 
ATOM      6  N   UNL     1      -1.175  -6.800  -0.881  1.00  0.00    -0.331 N 
ATOM      7  H   UNL     1      -1.947  -6.361  -1.404  1.00  0.00     0.348 HD
ENDROOT
BRANCH   6   8
ATOM      8  C   UNL     1      -1.302  -8.269  -0.980  1.00  0.00     0.299 C 
BRANCH   8   9
ATOM      9  C   UNL     1      -1.437  -8.648  -2.432  1.00  0.00     0.006 A 
ATOM     10  C   UNL     1      -1.685  -9.344  -5.096  1.00  0.00     0.000 A 
ATOM     11  C   UNL     1      -2.812  -9.055  -4.350  1.00  0.00     0.001 A 
ATOM     12  C   UNL     1      -0.434  -9.286  -4.511  1.00  0.00     0.001 A 
ATOM     13  C   UNL     1      -2.688  -8.712  -3.016  1.00  0.00     0.009 A 
ATOM     14  C   UNL     1      -0.310  -8.938  -3.179  1.00  0.00     0.009 A 
ENDBRANCH   8   9
ENDBRANCH   6   8
BRANCH   3  15
ATOM     15  N   UNL     1       0.052  -2.866  -0.013  1.00  0.00    -0.349 N 
ATOM     16  C   UNL     1       1.216  -2.187  -0.021  1.00  0.00     0.251 C 
ATOM     17  H   UNL     1      -0.842  -2.355  -0.002  1.00  0.00     0.164 HD
ATOM     18  O   UNL     1       2.272  -2.790  -0.034  1.00  0.00    -0.269 OA
BRANCH  16  19
ATOM     19  C   UNL     1       1.210  -0.710  -0.013  1.00  0.00     0.041 A 
ATOM     20  C   UNL     1       2.410   0.006  -0.021  1.00  0.00     0.035 A 
ATOM     21  C   UNL     1       0.002  -0.004   0.002  1.00  0.00     0.016 A 
ATOM     22  C   UNL     1       2.376   1.378  -0.013  1.00  0.00     0.056 A 
ATOM     23  C   UNL     1      -0.017   1.366   0.010  1.00  0.00     0.029 A 
ATOM     24  C   UNL     1       1.180   2.107   0.002  1.00  0.00     0.065 A 
ATOM     25  S   UNL     1       3.626   2.641  -0.018  1.00  0.00    -0.096 S 
ATOM     26  N   UNL     1       1.293   3.501   0.009  1.00  0.00    -0.290 N 
ATOM     27  C   UNL     1       2.543   4.051  -0.001  1.00  0.00     0.195 A 
ATOM     28  C   UNL     1       0.417   4.583   0.023  1.00  0.00     0.123 A 
ATOM     29  N   UNL     1       2.467   5.351   0.007  1.00  0.00    -0.219 NA
ATOM     30  C   UNL     1       1.166   5.711   0.022  1.00  0.00     0.090 A 
BRANCH  30  31
ATOM     31  C   UNL     1       0.647   7.101   0.034  1.00  0.00     0.002 A 
ATOM     32  C   UNL     1       1.532   8.177   0.031  1.00  0.00     0.013 A 
ATOM     33  C   UNL     1      -0.727   7.333   0.043  1.00  0.00     0.013 A 
ATOM     34  C   UNL     1       1.044   9.468   0.043  1.00  0.00     0.040 A 
ATOM     35  C   UNL     1      -1.206   8.628   0.059  1.00  0.00     0.040 A 
ATOM     36  C   UNL     1      -0.322   9.695   0.056  1.00  0.00     0.123 A 
ATOM     37  F   UNL     1      -0.795  10.960   0.067  1.00  0.00    -0.207 F 
ENDBRANCH  30  31
ENDBRANCH  16  19
ENDBRANCH   3  15
TORSDOF 5
