REMARK SMILES CC(C)(C)c1nnc(SCc2nc(O)c3cc(Br)cc(Br)c3n2)n1N
REMARK SMILES IDX 10 1 9 2 8 3 5 4 24 5 6 6 7 7 2 8 1 9 3 10 4 11 25 12 11 15
REMARK SMILES IDX 23 16 12 17 22 18 13 19 15 20 20 21 16 22 19 23 21 24 17 25
REMARK SMILES IDX 18 26 14 27
REMARK H PARENT 25 13 25 14 14 28
REMARK Flexibility Score: inf
ROOT
ATOM      1  C   UNL     1      -3.765   5.699   0.014  1.00  0.00     0.155 C 
ENDROOT
BRANCH   1   2
ATOM      2  S   UNL     1      -5.130   4.512   0.070  1.00  0.00    -0.076 SA
BRANCH   2   3
ATOM      3  C   UNL     1      -6.499   5.621   0.085  1.00  0.00     0.210 A 
ATOM      4  C   UNL     1      -8.509   6.461   0.122  1.00  0.00     0.157 A 
ATOM      5  N   UNL     1      -7.821   5.279   0.120  1.00  0.00    -0.221 N 
ATOM      6  N   UNL     1      -7.630   7.422   0.082  1.00  0.00    -0.132 NA
ATOM      7  N   UNL     1      -6.442   6.933   0.060  1.00  0.00    -0.121 NA
BRANCH   4   8
ATOM      8  C   UNL     1     -10.007   6.622   0.157  1.00  0.00     0.024 C 
ATOM      9  C   UNL     1     -10.358   8.105   0.292  1.00  0.00     0.019 C 
ATOM     10  C   UNL     1     -10.610   6.070  -1.136  1.00  0.00     0.019 C 
ATOM     11  C   UNL     1     -10.574   5.853   1.353  1.00  0.00     0.019 C 
ENDBRANCH   4   8
BRANCH   5  12
ATOM     12  N   UNL     1      -8.346   4.019   0.149  1.00  0.00    -0.336 N 
ATOM     13  H   UNL     1      -9.375   3.978   0.176  1.00  0.00     0.178 HD
ATOM     14  H   UNL     1      -7.774   3.162   0.146  1.00  0.00     0.178 HD
ENDBRANCH   5  12
ENDBRANCH   2   3
ENDBRANCH   1   2
BRANCH   1  15
ATOM     15  C   UNL     1      -2.454   4.956  -0.006  1.00  0.00     0.143 A 
ATOM     16  N   UNL     1      -2.481   3.659   0.018  1.00  0.00    -0.230 NA
ATOM     17  N   UNL     1      -1.304   5.679  -0.049  1.00  0.00    -0.197 NA
ATOM     18  C   UNL     1      -1.341   2.923   0.002  1.00  0.00     0.092 A 
ATOM     19  C   UNL     1      -0.101   5.059  -0.068  1.00  0.00     0.222 A 
ATOM     20  C   UNL     1      -0.097   3.589  -0.041  1.00  0.00     0.065 A 
ATOM     21  C   UNL     1      -1.370   1.526   0.022  1.00  0.00     0.045 A 
ATOM     22  C   UNL     1       1.088   2.855  -0.058  1.00  0.00     0.031 A 
ATOM     23  C   UNL     1      -0.188   0.819   0.011  1.00  0.00     0.033 A 
ATOM     24  Br  UNL     1      -3.024   0.611   0.072  1.00  0.00    -0.048 Br
ATOM     25  C   UNL     1       1.035   1.478  -0.031  1.00  0.00     0.020 A 
ATOM     26  Br  UNL     1       2.639   0.477  -0.053  1.00  0.00    -0.051 Br
BRANCH  19  27
ATOM     27  O   UNL     1       0.937   5.694  -0.105  1.00  0.00    -0.493 OA
ATOM     28  H   UNL     1       0.885   6.294   0.680  1.00  0.00     0.295 HD
ENDBRANCH  19  27
ENDBRANCH   1  15
TORSDOF 6
