REMARK SMILES C[N@H+](Cc1cccc(OC[C@@H]2CCCN(C(=O)c3ccc4c(c3)OCO4)C2)c1)Cc1ccc2ncccc2c1
REMARK SMILES IDX 4 1 5 2 6 3 7 4 8 5 28 6 3 7 2 8 1 9 29 11 30 12 39 13 31 14
REMARK SMILES IDX 38 15 32 16 33 17 37 18 34 19 36 20 35 21 9 22 10 23 11 24
REMARK SMILES IDX 27 25 12 26 15 27 13 28 14 29 16 30 17 31 18 32 23 33 19 34
REMARK SMILES IDX 22 35 20 36 21 37 24 38 26 39 25 40
REMARK H PARENT 2 10
REMARK Flexibility Score: inf
ROOT
ATOM      1  C   UNL     1       9.738  -2.396   1.935  1.00  0.00     0.010 A 
ATOM      2  C   UNL     1       9.826  -3.771   1.819  1.00  0.00     0.010 A 
ATOM      3  C   UNL     1       8.682  -4.526   1.641  1.00  0.00     0.004 A 
ATOM      4  C   UNL     1       7.447  -3.909   1.586  1.00  0.00     0.046 A 
ATOM      5  C   UNL     1       7.357  -2.529   1.697  1.00  0.00     0.119 A 
ATOM      6  C   UNL     1       8.507  -1.773   1.875  1.00  0.00     0.056 A 
ENDROOT
BRANCH   1   7
ATOM      7  C   UNL     1      10.988  -1.575   2.129  1.00  0.00     0.299 C 
BRANCH   7   8
ATOM      8  N   UNL     1      11.239  -1.424   3.577  1.00  0.00    -0.330 N 
ATOM      9  C   UNL     1      11.600  -2.731   4.166  1.00  0.00     0.333 C 
ATOM     10  H   UNL     1      10.382  -1.077   4.031  1.00  0.00     0.348 HD
BRANCH   8  11
ATOM     11  C   UNL     1      12.329  -0.451   3.802  1.00  0.00     0.299 C 
BRANCH  11  12
ATOM     12  C   UNL     1      12.416  -0.150   5.276  1.00  0.00     0.007 A 
ATOM     13  C   UNL     1      11.677   0.867   5.799  1.00  0.00     0.020 A 
ATOM     14  C   UNL     1      13.256  -0.913   6.085  1.00  0.00     0.012 A 
ATOM     15  C   UNL     1      11.754   1.145   7.173  1.00  0.00     0.001 A 
ATOM     16  C   UNL     1      13.358  -0.669   7.419  1.00  0.00     0.029 A 
ATOM     17  C   UNL     1      12.607   0.370   7.998  1.00  0.00     0.070 A 
ATOM     18  C   UNL     1      11.004   2.184   7.754  1.00  0.00     0.012 A 
ATOM     19  N   UNL     1      12.688   0.634   9.305  1.00  0.00    -0.256 NA
ATOM     20  C   UNL     1      11.133   2.399   9.097  1.00  0.00     0.021 A 
ATOM     21  C   UNL     1      11.990   1.600   9.850  1.00  0.00     0.112 A 
ENDBRANCH  11  12
ENDBRANCH   8  11
ENDBRANCH   7   8
ENDBRANCH   1   7
BRANCH   5  22
ATOM     22  O   UNL     1       6.144  -1.919   1.638  1.00  0.00    -0.493 OA
BRANCH  22  23
ATOM     23  C   UNL     1       5.003  -2.760   1.453  1.00  0.00     0.235 C 
BRANCH  23  24
ATOM     24  C   UNL     1       3.738  -1.901   1.411  1.00  0.00     0.046 C 
ATOM     25  C   UNL     1       3.776  -0.994   0.177  1.00  0.00     0.126 C 
ATOM     26  C   UNL     1       2.507  -2.808   1.334  1.00  0.00     0.011 C 
ATOM     27  N   UNL     1       2.500  -0.272   0.081  1.00  0.00    -0.338 N 
ATOM     28  C   UNL     1       1.240  -1.950   1.325  1.00  0.00     0.022 C 
ATOM     29  C   UNL     1       1.250  -1.043   0.096  1.00  0.00     0.120 C 
BRANCH  27  30
ATOM     30  C   UNL     1       2.477   1.072  -0.015  1.00  0.00     0.254 C 
ATOM     31  O   UNL     1       3.519   1.694  -0.091  1.00  0.00    -0.269 OA
BRANCH  30  32
ATOM     32  C   UNL     1       1.187   1.789  -0.027  1.00  0.00     0.043 A 
ATOM     33  C   UNL     1       0.974   2.863   0.841  1.00  0.00     0.064 A 
ATOM     34  C   UNL     1       0.175   1.395  -0.905  1.00  0.00     0.018 A 
ATOM     35  C   UNL     1      -0.235   3.531   0.827  1.00  0.00     0.166 A 
ATOM     36  C   UNL     1      -1.027   2.068  -0.918  1.00  0.00     0.051 A 
ATOM     37  C   UNL     1      -1.242   3.132  -0.053  1.00  0.00     0.165 A 
ATOM     38  O   UNL     1      -0.690   4.591   1.557  1.00  0.00    -0.454 OA
ATOM     39  O   UNL     1      -2.323   3.942   0.128  1.00  0.00    -0.454 OA
ATOM     40  C   UNL     1      -1.828   5.095   0.834  1.00  0.00     0.468 C 
ENDBRANCH  30  32
ENDBRANCH  27  30
ENDBRANCH  23  24
ENDBRANCH  22  23
ENDBRANCH   5  22
TORSDOF 9
