REMARK SMILES O=C(c1cccc(S(=O)(=O)[N-]c2ccccc2F)c1)N1CCC(c2c[nH]c3ccccc23)CC1
REMARK SMILES IDX 3 1 4 2 5 3 6 4 7 5 19 6 2 7 23 8 33 9 22 10 34 11 21 12
REMARK SMILES IDX 20 13 1 14 24 15 30 16 31 17 29 18 32 19 28 20 27 21 26 22
REMARK SMILES IDX 25 23 8 25 9 26 10 27 11 28 12 29 17 30 13 31 16 32 18 33
REMARK SMILES IDX 14 34 15 35
REMARK H PARENT 26 24
REMARK Flexibility Score: inf
ROOT
ATOM      1  C   UNL     1      -1.175  11.334  -0.818  1.00  0.00     0.041 A 
ATOM      2  C   UNL     1      -2.001  10.899  -1.855  1.00  0.00     0.014 A 
ATOM      3  C   UNL     1      -1.931  11.508  -3.091  1.00  0.00     0.002 A 
ATOM      4  C   UNL     1      -1.043  12.549  -3.302  1.00  0.00     0.019 A 
ATOM      5  C   UNL     1      -0.222  12.985  -2.278  1.00  0.00     0.053 A 
ATOM      6  C   UNL     1      -0.286  12.387  -1.036  1.00  0.00     0.032 A 
ENDROOT
BRANCH   1   7
ATOM      7  C   UNL     1      -1.245  10.685   0.509  1.00  0.00     0.253 C 
ATOM      8  C   UNL     1      -0.218   6.715   0.754  1.00  0.00     0.025 C 
ATOM      9  C   UNL     1      -0.078   7.675   1.938  1.00  0.00     0.030 C 
ATOM     10  C   UNL     1      -0.147   7.504  -0.555  1.00  0.00     0.030 C 
ATOM     11  C   UNL     1      -1.234   8.681   1.915  1.00  0.00     0.120 C 
ATOM     12  C   UNL     1      -1.303   8.507  -0.607  1.00  0.00     0.120 C 
ATOM     13  N   UNL     1      -1.260   9.341   0.602  1.00  0.00    -0.339 N 
ATOM     14  O   UNL     1      -1.290  11.364   1.516  1.00  0.00    -0.269 OA
BRANCH   8  15
ATOM     15  C   UNL     1       0.898   5.704   0.793  1.00  0.00    -0.019 A 
ATOM     16  C   UNL     1      -0.138   2.039   1.067  1.00  0.00     0.001 A 
ATOM     17  C   UNL     1      -0.341   3.387   0.986  1.00  0.00     0.010 A 
ATOM     18  C   UNL     1       1.150   1.519   1.072  1.00  0.00     0.002 A 
ATOM     19  C   UNL     1       0.753   4.250   0.897  1.00  0.00     0.003 A 
ATOM     20  C   UNL     1       2.244   2.352   0.985  1.00  0.00     0.026 A 
ATOM     21  C   UNL     1       2.059   3.728   0.896  1.00  0.00     0.046 A 
ATOM     22  N   UNL     1       2.923   4.796   0.799  1.00  0.00    -0.361 N 
ATOM     23  C   UNL     1       2.214   5.964   0.739  1.00  0.00     0.087 A 
ATOM     24  H   UNL     1       3.950   4.726   0.776  1.00  0.00     0.166 HD
ENDBRANCH   8  15
ENDBRANCH   1   7
BRANCH   5  25
ATOM     25  S   UNL     1       0.904  14.311  -2.558  1.00  0.00     0.123 S 
ATOM     26  O   UNL     1       1.945  14.169  -1.601  1.00  0.00    -0.240 OA
ATOM     27  O   UNL     1       1.154  14.343  -3.957  1.00  0.00    -0.240 OA
BRANCH  25  28
ATOM     28  N   UNL     1       0.109  15.715  -2.188  1.00  0.00    -0.570 NA
BRANCH  28  29
ATOM     29  C   UNL     1      -0.382  15.921  -0.894  1.00  0.00    -0.091 A 
ATOM     30  C   UNL     1      -1.581  16.598  -0.703  1.00  0.00     0.109 A 
ATOM     31  C   UNL     1       0.324  15.443   0.202  1.00  0.00    -0.013 A 
ATOM     32  C   UNL     1      -2.063  16.799   0.578  1.00  0.00     0.038 A 
ATOM     33  F   UNL     1      -2.275  17.060  -1.767  1.00  0.00    -0.208 F 
ATOM     34  C   UNL     1      -0.161  15.651   1.478  1.00  0.00    -0.001 A 
ATOM     35  C   UNL     1      -1.353  16.325   1.666  1.00  0.00     0.003 A 
ENDBRANCH  28  29
ENDBRANCH  25  28
ENDBRANCH   5  25
TORSDOF 5
