REMARK SMILES CCN(CCCl)c1ccc(-c2nc3ccc(-c4nc5ccc(N6CC[NH+](C)CC6)cc5[nH]4)cc3[nH]2)cc1
REMARK SMILES IDX 7 1 8 2 9 3 10 4 36 5 37 6 3 7 2 8 1 9 4 10 5 11 6 12 11 13
REMARK SMILES IDX 12 14 35 15 13 16 34 17 14 19 33 20 15 21 16 22 17 23 18 24
REMARK SMILES IDX 32 25 19 26 31 27 20 29 30 30 21 31 22 32 23 33 29 34 24 35
REMARK SMILES IDX 28 36 25 37 26 38 27 39
REMARK H PARENT 35 18 32 28 26 40
REMARK Flexibility Score: inf
ROOT
ATOM      1  C   UNL     1      -7.551   2.592   0.086  1.00  0.00     0.037 A 
ATOM      2  C   UNL     1      -6.829   3.782   0.085  1.00  0.00     0.026 A 
ATOM      3  C   UNL     1      -5.452   3.753   0.072  1.00  0.00     0.014 A 
ATOM      4  C   UNL     1      -4.781   2.529   0.060  1.00  0.00     0.017 A 
ATOM      5  C   UNL     1      -5.508   1.336   0.055  1.00  0.00     0.014 A 
ATOM      6  C   UNL     1      -6.885   1.371   0.073  1.00  0.00     0.026 A 
ENDROOT
BRANCH   1   7
ATOM      7  N   UNL     1      -8.944   2.624   0.099  1.00  0.00    -0.371 N 
BRANCH   7   8
ATOM      8  C   UNL     1      -9.647   3.910   0.111  1.00  0.00     0.113 C 
ATOM      9  C   UNL     1      -9.905   4.364  -1.327  1.00  0.00     0.027 C 
ENDBRANCH   7   8
BRANCH   7  10
ATOM     10  C   UNL     1      -9.706   1.373   0.099  1.00  0.00     0.132 C 
BRANCH  10  11
ATOM     11  C   UNL     1      -9.957   0.930   1.542  1.00  0.00     0.131 C 
ATOM     12  Cl  UNL     1     -10.895  -0.610   1.543  1.00  0.00    -0.125 Cl
ENDBRANCH  10  11
ENDBRANCH   7  10
ENDBRANCH   1   7
BRANCH   4  13
ATOM     13  C   UNL     1      -3.304   2.494   0.045  1.00  0.00     0.138 A 
ATOM     14  N   UNL     1      -2.525   3.550   0.043  1.00  0.00    -0.229 NA
ATOM     15  N   UNL     1      -2.542   1.357   0.033  1.00  0.00    -0.338 N 
ATOM     16  C   UNL     1      -1.232   3.163   0.029  1.00  0.00     0.089 A 
ATOM     17  C   UNL     1      -1.218   1.756   0.017  1.00  0.00     0.066 A 
ATOM     18  H   UNL     1      -2.890   0.387   0.034  1.00  0.00     0.168 HD
ATOM     19  C   UNL     1      -0.022   3.869   0.022  1.00  0.00     0.031 A 
ATOM     20  C   UNL     1      -0.013   1.076   0.008  1.00  0.00     0.040 A 
ATOM     21  C   UNL     1       1.161   3.194   0.008  1.00  0.00     0.014 A 
ATOM     22  C   UNL     1       1.182   1.793   0.000  1.00  0.00     0.019 A 
BRANCH  22  23
ATOM     23  C   UNL     1       2.473   1.075  -0.016  1.00  0.00     0.138 A 
ATOM     24  N   UNL     1       2.611  -0.229  -0.025  1.00  0.00    -0.229 NA
ATOM     25  N   UNL     1       3.707   1.671  -0.030  1.00  0.00    -0.338 N 
ATOM     26  C   UNL     1       3.929  -0.548  -0.039  1.00  0.00     0.089 A 
ATOM     27  C   UNL     1       4.649   0.660  -0.039  1.00  0.00     0.068 A 
ATOM     28  H   UNL     1       3.897   2.683  -0.033  1.00  0.00     0.168 HD
ATOM     29  C   UNL     1       4.621  -1.764  -0.053  1.00  0.00     0.033 A 
ATOM     30  C   UNL     1       6.036   0.638  -0.053  1.00  0.00     0.054 A 
ATOM     31  C   UNL     1       5.986  -1.772  -0.067  1.00  0.00     0.028 A 
ATOM     32  C   UNL     1       6.702  -0.576  -0.066  1.00  0.00     0.039 A 
BRANCH  32  33
ATOM     33  N   UNL     1       8.100  -0.602  -0.080  1.00  0.00    -0.360 N 
ATOM     34  C   UNL     1       8.600  -1.984  -0.093  1.00  0.00     0.178 C 
ATOM     35  C   UNL     1       8.630   0.157  -1.221  1.00  0.00     0.178 C 
ATOM     36  C   UNL     1      10.130  -1.971  -0.027  1.00  0.00     0.283 C 
ATOM     37  C   UNL     1      10.159   0.171  -1.155  1.00  0.00     0.283 C 
ATOM     38  N   UNL     1      10.659  -1.211  -1.168  1.00  0.00    -0.334 N 
ATOM     39  C   UNL     1      12.128  -1.239  -1.183  1.00  0.00     0.332 C 
ATOM     40  H   UNL     1      10.326  -1.662  -2.032  1.00  0.00     0.347 HD
ENDBRANCH  32  33
ENDBRANCH  22  23
ENDBRANCH   4  13
TORSDOF 7
