REMARK SMILES O=C(N[C@@H](Cc1ccccc1)c1nc2ccccc2[nH]1)[C@H]1CCCN(C(=O)Nc2ccccc2)C1
REMARK SMILES IDX 3 1 2 2 1 3 4 5 5 6 6 7 9 8 10 9 8 10 11 11 7 12 12 13 13 14
REMARK SMILES IDX 20 15 14 16 19 17 15 19 18 20 16 21 17 22 21 23 35 24 22 25
REMARK SMILES IDX 25 26 23 27 24 28 26 29 27 30 28 31 29 33 34 34 30 35 33 36
REMARK SMILES IDX 31 37 32 38
REMARK H PARENT 3 4 20 18 28 32
REMARK Flexibility Score: inf
ROOT
ATOM      1  N   UNL     1       2.932   4.594   0.472  1.00  0.00    -0.346 N 
ATOM      2  C   UNL     1       3.604   5.026  -0.613  1.00  0.00     0.225 C 
ATOM      3  O   UNL     1       3.387   4.529  -1.698  1.00  0.00    -0.275 OA
ATOM      4  H   UNL     1       3.116   5.016   1.394  1.00  0.00     0.164 HD
ENDROOT
BRANCH   1   5
ATOM      5  C   UNL     1       1.938   3.526   0.342  1.00  0.00     0.153 C 
BRANCH   5   6
ATOM      6  C   UNL     1       1.784   2.805   1.682  1.00  0.00     0.068 C 
BRANCH   6   7
ATOM      7  C   UNL     1       3.075   2.109   2.030  1.00  0.00    -0.046 A 
ATOM      8  C   UNL     1       5.443   0.832   2.667  1.00  0.00     0.000 A 
ATOM      9  C   UNL     1       4.474   0.168   1.937  1.00  0.00     0.000 A 
ATOM     10  C   UNL     1       5.227   2.134   3.079  1.00  0.00     0.000 A 
ATOM     11  C   UNL     1       3.288   0.805   1.623  1.00  0.00     0.004 A 
ATOM     12  C   UNL     1       4.043   2.772   2.760  1.00  0.00     0.004 A 
ENDBRANCH   6   7
ENDBRANCH   5   6
BRANCH   5  13
ATOM     13  C   UNL     1       0.614   4.118  -0.065  1.00  0.00     0.130 A 
ATOM     14  N   UNL     1      -0.498   3.452  -0.176  1.00  0.00    -0.231 NA
ATOM     15  N   UNL     1       0.406   5.428  -0.370  1.00  0.00    -0.340 N 
ATOM     16  C   UNL     1      -1.496   4.290  -0.561  1.00  0.00     0.089 A 
ATOM     17  C   UNL     1      -0.929   5.569  -0.690  1.00  0.00     0.066 A 
ATOM     18  H   UNL     1       1.115   6.176  -0.363  1.00  0.00     0.168 HD
ATOM     19  C   UNL     1      -2.857   4.111  -0.823  1.00  0.00     0.030 A 
ATOM     20  C   UNL     1      -1.723   6.640  -1.076  1.00  0.00     0.028 A 
ATOM     21  C   UNL     1      -3.622   5.176  -1.206  1.00  0.00     0.002 A 
ATOM     22  C   UNL     1      -3.063   6.440  -1.330  1.00  0.00     0.002 A 
ENDBRANCH   5  13
ENDBRANCH   1   5
BRANCH   2  23
ATOM     23  C   UNL     1       4.626   6.125  -0.478  1.00  0.00     0.098 C 
ATOM     24  C   UNL     1       3.950   7.388   0.064  1.00  0.00     0.134 C 
ATOM     25  C   UNL     1       5.236   6.426  -1.849  1.00  0.00     0.017 C 
ATOM     26  N   UNL     1       4.929   8.484   0.066  1.00  0.00    -0.324 N 
ATOM     27  C   UNL     1       6.298   7.519  -1.708  1.00  0.00     0.022 C 
ATOM     28  C   UNL     1       5.641   8.798  -1.180  1.00  0.00     0.121 C 
BRANCH  26  29
ATOM     29  C   UNL     1       5.168   9.188   1.190  1.00  0.00     0.321 C 
ATOM     30  O   UNL     1       4.518   8.971   2.194  1.00  0.00    -0.248 OA
ATOM     31  N   UNL     1       6.129  10.134   1.201  1.00  0.00    -0.308 N 
ATOM     32  H   UNL     1       6.599  10.400   0.324  1.00  0.00     0.171 HD
BRANCH  31  33
ATOM     33  C   UNL     1       6.487  10.753   2.404  1.00  0.00     0.042 A 
ATOM     34  C   UNL     1       6.899  12.079   2.408  1.00  0.00     0.026 A 
ATOM     35  C   UNL     1       6.426  10.044   3.596  1.00  0.00     0.026 A 
ATOM     36  C   UNL     1       7.252  12.688   3.596  1.00  0.00     0.002 A 
ATOM     37  C   UNL     1       6.785  10.657   4.781  1.00  0.00     0.002 A 
ATOM     38  C   UNL     1       7.195  11.978   4.782  1.00  0.00     0.000 A 
ENDBRANCH  31  33
ENDBRANCH  26  29
ENDBRANCH   2  23
TORSDOF 7
