REMARK SMILES COc1ccc(-n2cnc3ccc(C)cc3c2=O)cc1CN[C@H]1CCC[NH2+][C@H]1c1ccccc1
REMARK SMILES IDX 21 1 20 2 6 3 19 4 5 5 4 6 3 7 7 8 14 9 13 10 15 11 12 12
REMARK SMILES IDX 16 13 11 14 10 15 17 16 9 17 18 18 8 19 2 20 1 21 22 22
REMARK SMILES IDX 23 24 28 25 24 26 27 27 25 28 26 29 29 32 34 33 30 34 33 35
REMARK SMILES IDX 31 36 32 37
REMARK H PARENT 22 23 27 30 27 31
REMARK Flexibility Score: inf
ROOT
ATOM      1  C   UNL     1      -2.679  -6.865   0.209  1.00  0.00     0.121 C 
ENDROOT
BRANCH   1   2
ATOM      2  C   UNL     1      -1.345  -6.175   0.086  1.00  0.00     0.010 A 
ATOM      3  C   UNL     1      -0.048  -4.161  -0.021  1.00  0.00     0.051 A 
ATOM      4  C   UNL     1      -1.277  -4.796   0.098  1.00  0.00     0.035 A 
ATOM      5  C   UNL     1       1.113  -4.913  -0.140  1.00  0.00     0.030 A 
ATOM      6  C   UNL     1       1.044  -6.292  -0.146  1.00  0.00     0.049 A 
ATOM      7  C   UNL     1      -0.185  -6.926  -0.033  1.00  0.00     0.123 A 
BRANCH   3   8
ATOM      8  N   UNL     1       0.021  -2.761  -0.014  1.00  0.00    -0.267 N 
ATOM      9  C   UNL     1      -1.318   2.474  -2.990  1.00  0.00     0.044 C 
ATOM     10  C   UNL     1      -0.777   1.589  -1.897  1.00  0.00    -0.050 A 
ATOM     11  C   UNL     1      -0.898   0.221  -2.003  1.00  0.00     0.019 A 
ATOM     12  C   UNL     1      -0.161   2.160  -0.791  1.00  0.00     0.005 A 
ATOM     13  C   UNL     1      -0.396  -0.593  -0.990  1.00  0.00     0.066 A 
ATOM     14  C   UNL     1       0.342   1.373   0.221  1.00  0.00     0.029 A 
ATOM     15  C   UNL     1       0.232  -0.016   0.137  1.00  0.00     0.078 A 
ATOM     16  C   UNL     1      -0.496  -2.059  -1.048  1.00  0.00     0.265 A 
ATOM     17  N   UNL     1       0.712  -0.828   1.111  1.00  0.00    -0.238 NA
ATOM     18  O   UNL     1      -1.025  -2.619  -1.991  1.00  0.00    -0.268 OA
ATOM     19  C   UNL     1       0.609  -2.120   1.032  1.00  0.00     0.208 A 
ENDBRANCH   3   8
BRANCH   7  20
ATOM     20  O   UNL     1      -0.252  -8.284  -0.039  1.00  0.00    -0.496 OA
ATOM     21  C   UNL     1       0.982  -8.994  -0.165  1.00  0.00     0.278 C 
ENDBRANCH   7  20
ENDBRANCH   1   2
BRANCH   1  22
ATOM     22  N   UNL     1      -2.872  -7.315   1.594  1.00  0.00    -0.304 NA
ATOM     23  H   UNL     1      -2.115  -7.966   1.848  1.00  0.00     0.123 HD
BRANCH  22  24
ATOM     24  C   UNL     1      -4.166  -7.993   1.752  1.00  0.00     0.117 C 
ATOM     25  C   UNL     1      -4.619  -7.896   3.210  1.00  0.00     0.230 C 
ATOM     26  C   UNL     1      -4.021  -9.467   1.364  1.00  0.00     0.031 C 
ATOM     27  N   UNL     1      -3.631  -8.554   4.075  1.00  0.00    -0.339 N 
ATOM     28  C   UNL     1      -3.023 -10.140   2.311  1.00  0.00     0.063 C 
ATOM     29  C   UNL     1      -3.509  -9.982   3.753  1.00  0.00     0.261 C 
ATOM     30  H   UNL     1      -3.921  -8.452   5.059  1.00  0.00     0.346 HD
ATOM     31  H   UNL     1      -2.716  -8.098   3.951  1.00  0.00     0.346 HD
BRANCH  25  32
ATOM     32  C   UNL     1      -4.744  -6.446   3.601  1.00  0.00     0.011 A 
ATOM     33  C   UNL     1      -5.987  -5.840   3.621  1.00  0.00     0.010 A 
ATOM     34  C   UNL     1      -3.618  -5.723   3.945  1.00  0.00     0.010 A 
ATOM     35  C   UNL     1      -6.102  -4.511   3.981  1.00  0.00     0.001 A 
ATOM     36  C   UNL     1      -3.732  -4.391   4.299  1.00  0.00     0.001 A 
ATOM     37  C   UNL     1      -4.974  -3.786   4.319  1.00  0.00     0.000 A 
ENDBRANCH  25  32
ENDBRANCH  22  24
ENDBRANCH   1  22
TORSDOF 6
