REMARK SMILES CC(C)c1ccc(OCc2nnc(S[C@H](C)C(=O)N3c4ccccc4CC[C@@H]3C)n2N)cc1
REMARK SMILES IDX 13 1 12 2 11 3 10 4 30 5 14 6 15 7 16 8 17 9 18 10 19 11
REMARK SMILES IDX 29 12 28 13 27 14 20 15 26 16 25 17 21 18 24 19 22 20 23 21
REMARK SMILES IDX 31 22 9 25 8 26 7 27 32 28 6 29 33 30 5 31 4 32 2 33 1 34
REMARK SMILES IDX 3 35
REMARK H PARENT 31 23 31 24
REMARK Flexibility Score: inf
ROOT
ATOM      1  C   UNL     1      -6.381   0.218   3.993  1.00  0.00     0.210 A 
ATOM      2  N   UNL     1      -6.909  -0.331   2.924  1.00  0.00    -0.121 NA
ATOM      3  N   UNL     1      -8.146  -0.604   3.139  1.00  0.00    -0.129 NA
ATOM      4  C   UNL     1      -8.482  -0.240   4.344  1.00  0.00     0.190 A 
ATOM      5  N   UNL     1      -7.369   0.296   4.932  1.00  0.00    -0.218 N 
ENDROOT
BRANCH   1   6
ATOM      6  S   UNL     1      -4.714   0.758   4.179  1.00  0.00    -0.071 SA
BRANCH   6   7
ATOM      7  C   UNL     1      -4.059   0.323   2.549  1.00  0.00     0.141 C 
ATOM      8  C   UNL     1      -4.088  -1.197   2.378  1.00  0.00     0.030 C 
BRANCH   7   9
ATOM      9  C   UNL     1      -2.639   0.815   2.431  1.00  0.00     0.240 C 
ATOM     10  O   UNL     1      -2.119   1.395   3.360  1.00  0.00    -0.273 OA
BRANCH   9  11
ATOM     11  N   UNL     1      -1.948   0.611   1.292  1.00  0.00    -0.308 N 
ATOM     12  C   UNL     1      -4.142   0.565   0.182  1.00  0.00     0.031 C 
ATOM     13  C   UNL     1      -2.649   0.260   0.046  1.00  0.00     0.088 C 
ATOM     14  C   UNL     1      -2.046   1.107  -1.081  1.00  0.00     0.030 C 
ATOM     15  C   UNL     1      -0.552   0.730   1.275  1.00  0.00     0.047 A 
ATOM     16  C   UNL     1      -0.572   0.736  -1.248  1.00  0.00     0.040 C 
ATOM     17  C   UNL     1       0.141   0.798   0.076  1.00  0.00    -0.024 A 
ATOM     18  C   UNL     1       0.138   0.785   2.481  1.00  0.00     0.026 A 
ATOM     19  C   UNL     1       1.520   0.924   0.090  1.00  0.00     0.006 A 
ATOM     20  C   UNL     1       1.513   0.911   2.486  1.00  0.00     0.002 A 
ATOM     21  C   UNL     1       2.203   0.981   1.289  1.00  0.00     0.000 A 
ENDBRANCH   9  11
ENDBRANCH   7   9
ENDBRANCH   6   7
ENDBRANCH   1   6
BRANCH   5  22
ATOM     22  N   UNL     1      -7.268   0.805   6.196  1.00  0.00    -0.335 N 
ATOM     23  H   UNL     1      -6.335   1.163   6.446  1.00  0.00     0.178 HD
ATOM     24  H   UNL     1      -8.053   0.837   6.862  1.00  0.00     0.178 HD
ENDBRANCH   5  22
BRANCH   4  25
ATOM     25  C   UNL     1      -9.843  -0.384   4.974  1.00  0.00     0.308 C 
BRANCH  25  26
ATOM     26  O   UNL     1     -10.616   0.789   4.710  1.00  0.00    -0.486 OA
BRANCH  26  27
ATOM     27  C   UNL     1     -11.879   0.821   5.212  1.00  0.00     0.120 A 
ATOM     28  C   UNL     1     -12.685   1.929   4.994  1.00  0.00     0.047 A 
ATOM     29  C   UNL     1     -12.366  -0.256   5.939  1.00  0.00     0.047 A 
ATOM     30  C   UNL     1     -13.968   1.959   5.506  1.00  0.00     0.008 A 
ATOM     31  C   UNL     1     -13.647  -0.218   6.453  1.00  0.00     0.008 A 
ATOM     32  C   UNL     1     -14.449   0.887   6.234  1.00  0.00    -0.045 A 
BRANCH  32  33
ATOM     33  C   UNL     1     -15.849   0.923   6.791  1.00  0.00     0.013 C 
ATOM     34  C   UNL     1     -16.657  -0.241   6.214  1.00  0.00     0.012 C 
ATOM     35  C   UNL     1     -15.795   0.800   8.315  1.00  0.00     0.012 C 
ENDBRANCH  32  33
ENDBRANCH  26  27
ENDBRANCH  25  26
ENDBRANCH   4  25
TORSDOF 9
