REMARK SMILES Cc1ccc(C)c2[nH]c(=O)c([C@H](c3nnnn3Cc3ccco3)N3CC[NH+](C4CCCCC4)CC3)cc12
REMARK SMILES IDX 13 1 14 2 15 3 16 4 17 5 12 6 11 7 1 8 2 9 37 10 3 11 7 12
REMARK SMILES IDX 36 13 4 14 5 15 8 16 6 17 9 18 10 20 24 21 25 22 35 23 26 24
REMARK SMILES IDX 34 25 27 26 28 28 33 29 29 30 32 31 30 32 31 33 18 34 19 35
REMARK SMILES IDX 23 36 20 37 22 38 21 39
REMARK H PARENT 8 19 27 27
REMARK Flexibility Score: inf
ROOT
ATOM      1  C   UNL     1      -0.742   1.585  -1.213  1.00  0.00     0.173 A 
ATOM      2  N   UNL     1      -1.200   2.797  -1.409  1.00  0.00    -0.112 NA
ATOM      3  N   UNL     1      -1.757   2.828  -2.571  1.00  0.00    -0.024 NA
ATOM      4  N   UNL     1      -1.673   1.665  -3.117  1.00  0.00    -0.044 NA
ATOM      5  N   UNL     1      -1.053   0.871  -2.311  1.00  0.00    -0.220 N 
ENDROOT
BRANCH   1   6
ATOM      6  C   UNL     1      -0.013   1.086   0.008  1.00  0.00     0.164 C 
BRANCH   6   7
ATOM      7  C   UNL     1       1.401   1.607  -0.003  1.00  0.00     0.043 A 
ATOM      8  C   UNL     1       4.722  -1.050  -0.364  1.00  0.00     0.045 C 
ATOM      9  C   UNL     1       4.911   0.440  -0.243  1.00  0.00    -0.042 A 
ATOM     10  C   UNL     1       3.801   1.282  -0.126  1.00  0.00     0.002 A 
ATOM     11  C   UNL     1       6.169   0.974  -0.247  1.00  0.00     0.004 A 
ATOM     12  C   UNL     1       3.985   2.673  -0.011  1.00  0.00     0.051 A 
ATOM     13  C   UNL     1       2.439   0.743  -0.114  1.00  0.00     0.022 A 
ATOM     14  C   UNL     1       6.354   2.345  -0.135  1.00  0.00     0.006 A 
ATOM     15  C   UNL     1       5.274   3.194  -0.017  1.00  0.00    -0.027 A 
ATOM     16  N   UNL     1       2.886   3.498   0.104  1.00  0.00    -0.321 N 
ATOM     17  C   UNL     1       5.490   4.680   0.105  1.00  0.00     0.046 C 
ATOM     18  C   UNL     1       1.640   2.994   0.109  1.00  0.00     0.253 A 
ATOM     19  H   UNL     1       3.022   4.516   0.188  1.00  0.00     0.170 HD
ATOM     20  O   UNL     1       0.692   3.753   0.213  1.00  0.00    -0.269 OA
ENDBRANCH   6   7
BRANCH   6  21
ATOM     21  N   UNL     1      -0.701   1.587   1.216  1.00  0.00    -0.278 NA
ATOM     22  C   UNL     1       0.034   1.167   2.428  1.00  0.00     0.147 C 
ATOM     23  C   UNL     1      -2.085   1.069   1.261  1.00  0.00     0.147 C 
ATOM     24  C   UNL     1      -0.670   1.746   3.658  1.00  0.00     0.278 C 
ATOM     25  C   UNL     1      -2.789   1.648   2.491  1.00  0.00     0.278 C 
ATOM     26  N   UNL     1      -2.054   1.228   3.702  1.00  0.00    -0.330 N 
ATOM     27  H   UNL     1      -2.025   0.199   3.737  1.00  0.00     0.348 HD
BRANCH  26  28
ATOM     28  C   UNL     1      -2.743   1.730   4.911  1.00  0.00     0.184 C 
ATOM     29  C   UNL     1      -1.951   1.303   6.148  1.00  0.00     0.065 C 
ATOM     30  C   UNL     1      -2.847   3.256   4.873  1.00  0.00     0.065 C 
ATOM     31  C   UNL     1      -2.667   1.796   7.407  1.00  0.00     0.006 C 
ATOM     32  C   UNL     1      -3.563   3.749   6.132  1.00  0.00     0.006 C 
ATOM     33  C   UNL     1      -2.771   3.322   7.369  1.00  0.00     0.000 C 
ENDBRANCH  26  28
ENDBRANCH   6  21
ENDBRANCH   1   6
BRANCH   5  34
ATOM     34  C   UNL     1      -0.746  -0.541  -2.546  1.00  0.00     0.223 C 
BRANCH  34  35
ATOM     35  C   UNL     1      -1.879  -1.394  -2.037  1.00  0.00     0.125 A 
ATOM     36  O   UNL     1      -1.988  -1.895  -0.795  1.00  0.00    -0.467 OA
ATOM     37  C   UNL     1      -2.956  -1.777  -2.746  1.00  0.00     0.047 A 
ATOM     38  C   UNL     1      -3.124  -2.604  -0.697  1.00  0.00     0.195 A 
ATOM     39  C   UNL     1      -3.756  -2.561  -1.884  1.00  0.00     0.042 A 
ENDBRANCH  34  35
ENDBRANCH   5  34
TORSDOF 6
