REMARK SMILES Cc1ccc(Cn2cccc/c2=N\C(=O)c2cnc3c(c2)c(C)nn3-c2nc3ccccc3[nH]2)cc1
REMARK SMILES IDX 7 1 8 2 9 3 10 4 11 5 12 6 13 7 6 8 5 9 1 10 2 11 36 12 3 13
REMARK SMILES IDX 35 14 4 15 14 16 15 17 16 18 17 19 21 20 18 21 20 22 19 23
REMARK SMILES IDX 22 24 25 25 24 26 23 27 26 28 27 29 34 30 28 31 33 32 29 34
REMARK SMILES IDX 32 35 30 36 31 37
REMARK H PARENT 34 33
REMARK Flexibility Score: inf
ROOT
ATOM      1  N   UNL     1       7.323   5.341  -0.938  1.00  0.00    -0.328 N 
ATOM      2  C   UNL     1       8.186   5.753  -1.898  1.00  0.00     0.088 A 
ATOM      3  C   UNL     1       8.509   4.940  -2.934  1.00  0.00     0.018 A 
ATOM      4  C   UNL     1       7.953   3.659  -3.021  1.00  0.00     0.005 A 
ATOM      5  C   UNL     1       7.086   3.236  -2.053  1.00  0.00     0.047 A 
ATOM      6  C   UNL     1       6.769   4.095  -0.992  1.00  0.00     0.137 A 
ATOM      7  N   UNL     1       5.921   3.696  -0.036  1.00  0.00    -0.191 NA
ENDROOT
BRANCH   1   8
ATOM      8  C   UNL     1       6.985   6.238   0.170  1.00  0.00     0.159 C 
BRANCH   8   9
ATOM      9  C   UNL     1       8.152   7.151   0.450  1.00  0.00    -0.028 A 
ATOM     10  C   UNL     1      11.457   9.738   1.242  1.00  0.00     0.044 C 
ATOM     11  C   UNL     1      10.291   8.826   0.963  1.00  0.00    -0.051 A 
ATOM     12  C   UNL     1      10.192   7.610   1.615  1.00  0.00     0.004 A 
ATOM     13  C   UNL     1       9.319   9.204   0.055  1.00  0.00     0.004 A 
ATOM     14  C   UNL     1       9.120   6.775   1.361  1.00  0.00     0.006 A 
ATOM     15  C   UNL     1       8.249   8.367  -0.201  1.00  0.00     0.006 A 
ENDBRANCH   8   9
ENDBRANCH   1   8
BRANCH   7  16
ATOM     16  C   UNL     1       5.460   2.445  -0.033  1.00  0.00     0.280 C 
ATOM     17  O   UNL     1       6.241   1.508  -0.029  1.00  0.00    -0.267 OA
BRANCH  16  18
ATOM     18  C   UNL     1       4.001   2.193  -0.034  1.00  0.00     0.061 A 
ATOM     19  C   UNL     1       3.098   3.263  -0.037  1.00  0.00     0.127 A 
ATOM     20  C   UNL     1       3.510   0.888  -0.031  1.00  0.00     0.029 A 
ATOM     21  N   UNL     1       1.800   3.062  -0.038  1.00  0.00    -0.236 NA
ATOM     22  C   UNL     1       2.126   0.710  -0.032  1.00  0.00     0.043 A 
ATOM     23  C   UNL     1       1.281   1.840  -0.035  1.00  0.00     0.166 A 
ATOM     24  C   UNL     1       1.251  -0.460  -0.030  1.00  0.00     0.069 A 
ATOM     25  N   UNL     1      -0.005   1.364  -0.035  1.00  0.00    -0.181 N 
ATOM     26  N   UNL     1       0.021  -0.034  -0.032  1.00  0.00    -0.168 NA
ATOM     27  C   UNL     1       1.693  -1.901  -0.026  1.00  0.00     0.069 C 
BRANCH  25  28
ATOM     28  C   UNL     1      -1.151   2.146  -0.043  1.00  0.00     0.231 A 
ATOM     29  N   UNL     1      -1.168   3.454  -0.041  1.00  0.00    -0.211 NA
ATOM     30  N   UNL     1      -2.429   1.665  -0.049  1.00  0.00    -0.322 N 
ATOM     31  C   UNL     1      -2.453   3.894  -0.054  1.00  0.00     0.091 A 
ATOM     32  C   UNL     1      -3.279   2.757  -0.056  1.00  0.00     0.067 A 
ATOM     33  H   UNL     1      -2.708   0.674  -0.049  1.00  0.00     0.170 HD
ATOM     34  C   UNL     1      -3.033   5.165  -0.060  1.00  0.00     0.030 A 
ATOM     35  C   UNL     1      -4.658   2.903  -0.063  1.00  0.00     0.028 A 
ATOM     36  C   UNL     1      -4.404   5.291  -0.067  1.00  0.00     0.002 A 
ATOM     37  C   UNL     1      -5.215   4.165  -0.068  1.00  0.00     0.002 A 
ENDBRANCH  25  28
ENDBRANCH  16  18
ENDBRANCH   7  16
TORSDOF 5
