REMARK SMILES O=C(c1ccc(N2CCC([NH2+]CC3(c4ccccc4)CCCCC3)CC2)cc1)N1CCC[C@H](O)C1
REMARK SMILES IDX 10 1 9 2 8 3 7 4 26 5 25 6 11 7 12 10 13 11 24 12 20 13
REMARK SMILES IDX 23 14 21 15 22 16 14 17 17 18 18 19 16 20 19 21 15 22 6 23
REMARK SMILES IDX 27 24 5 25 28 26 4 27 3 28 2 29 1 30 29 31 35 32 30 33 33 34
REMARK SMILES IDX 31 35 32 36 34 37
REMARK H PARENT 11 8 11 9 34 38
REMARK Flexibility Score: inf
ROOT
ATOM      1  C   UNL     1       1.981   6.140   0.727  1.00  0.00     0.185 C 
ATOM      2  C   UNL     1       2.390   5.535  -0.619  1.00  0.00     0.086 C 
ATOM      3  C   UNL     1       2.486   4.014  -0.481  1.00  0.00     0.122 C 
ATOM      4  N   UNL     1       1.187   3.476  -0.057  1.00  0.00    -0.371 N 
ATOM      5  C   UNL     1       0.796   4.007   1.255  1.00  0.00     0.122 C 
ATOM      6  C   UNL     1       0.649   5.528   1.169  1.00  0.00     0.086 C 
ENDROOT
BRANCH   1   7
ATOM      7  N   UNL     1       1.828   7.599   0.577  1.00  0.00    -0.343 N 
ATOM      8  H   UNL     1       2.523   7.947  -0.099  1.00  0.00     0.346 HD
ATOM      9  H   UNL     1       0.883   7.809   0.226  1.00  0.00     0.346 HD
BRANCH   7  10
ATOM     10  C   UNL     1       2.028   8.271   1.875  1.00  0.00     0.272 C 
BRANCH  10  11
ATOM     11  C   UNL     1       1.864   9.781   1.688  1.00  0.00     0.044 C 
ATOM     12  C   UNL     1       2.070  10.486   3.030  1.00  0.00     0.017 C 
ATOM     13  C   UNL     1       2.900  10.286   0.682  1.00  0.00     0.017 C 
ATOM     14  C   UNL     1       3.476  10.187   3.553  1.00  0.00     0.001 C 
ATOM     15  C   UNL     1       4.306   9.987   1.205  1.00  0.00     0.001 C 
ATOM     16  C   UNL     1       4.512  10.692   2.547  1.00  0.00     0.000 C 
BRANCH  11  17
ATOM     17  C   UNL     1       0.478  10.075   1.173  1.00  0.00    -0.036 A 
ATOM     18  C   UNL     1      -2.063  10.615   0.229  1.00  0.00     0.000 A 
ATOM     19  C   UNL     1      -1.646  11.148   1.434  1.00  0.00     0.000 A 
ATOM     20  C   UNL     1      -1.210   9.812  -0.505  1.00  0.00     0.000 A 
ATOM     21  C   UNL     1      -0.377  10.874   1.909  1.00  0.00     0.004 A 
ATOM     22  C   UNL     1       0.061   9.543  -0.033  1.00  0.00     0.004 A 
ENDBRANCH  11  17
ENDBRANCH  10  11
ENDBRANCH   7  10
ENDBRANCH   1   7
BRANCH   4  23
ATOM     23  C   UNL     1       1.202   2.086  -0.048  1.00  0.00     0.037 A 
ATOM     24  C   UNL     1       2.357   1.401  -0.414  1.00  0.00     0.027 A 
ATOM     25  C   UNL     1       0.061   1.382   0.327  1.00  0.00     0.027 A 
ATOM     26  C   UNL     1       2.375   0.025  -0.406  1.00  0.00     0.016 A 
ATOM     27  C   UNL     1       0.072   0.006   0.336  1.00  0.00     0.016 A 
ATOM     28  C   UNL     1       1.231  -0.685  -0.031  1.00  0.00     0.040 A 
BRANCH  28  29
ATOM     29  C   UNL     1       1.246  -2.160  -0.021  1.00  0.00     0.253 C 
ATOM     30  O   UNL     1       0.291  -2.781  -0.446  1.00  0.00    -0.269 OA
BRANCH  29  31
ATOM     31  N   UNL     1       2.320  -2.819   0.459  1.00  0.00    -0.336 N 
ATOM     32  C   UNL     1       2.406  -4.283   0.358  1.00  0.00     0.151 C 
ATOM     33  C   UNL     1       3.429  -2.088   1.086  1.00  0.00     0.120 C 
ATOM     34  C   UNL     1       2.675  -4.857   1.753  1.00  0.00     0.134 C 
ATOM     35  C   UNL     1       3.685  -2.688   2.477  1.00  0.00     0.024 C 
ATOM     36  C   UNL     1       3.922  -4.193   2.341  1.00  0.00     0.035 C 
BRANCH  34  37
ATOM     37  O   UNL     1       2.886  -6.267   1.655  1.00  0.00    -0.391 OA
ATOM     38  H   UNL     1       3.063  -6.638   2.555  1.00  0.00     0.211 HD
ENDBRANCH  34  37
ENDBRANCH  29  31
ENDBRANCH  28  29
ENDBRANCH   4  23
TORSDOF 8
