REMARK SMILES Cc1cccc(-c2nn(CN3CC[NH+](Cc4cccc5ccccc45)CC3)c(=S)n2CC(N)=O)c1
REMARK SMILES IDX 10 1 9 2 7 3 30 4 8 5 28 6 29 7 6 8 1 9 2 10 35 11 3 12 4 13
REMARK SMILES IDX 5 14 31 15 32 16 34 17 33 18 11 21 27 22 12 23 26 24 13 25
REMARK SMILES IDX 14 26 15 28 16 29 25 30 17 31 20 32 24 33 18 34 19 35 21 36
REMARK SMILES IDX 23 37 22 38
REMARK H PARENT 33 19 33 20 14 27
REMARK Flexibility Score: inf
ROOT
ATOM      1  C   UNL     1      -4.667  -2.714   0.018  1.00  0.00     0.234 C 
ENDROOT
BRANCH   1   2
ATOM      2  N   UNL     1      -4.426  -1.286  -0.204  1.00  0.00    -0.223 N 
ATOM      3  C   UNL     1      -3.385   0.632  -0.376  1.00  0.00     0.163 A 
ATOM      4  N   UNL     1      -4.726   0.824  -0.643  1.00  0.00    -0.290 N 
ATOM      5  N   UNL     1      -3.192  -0.629  -0.107  1.00  0.00    -0.150 NA
ATOM      6  C   UNL     1      -5.352  -0.365  -0.540  1.00  0.00     0.199 A 
ATOM      7  S   UNL     1      -7.022  -0.652  -0.783  1.00  0.00    -0.038 S 
BRANCH   3   8
ATOM      8  C   UNL     1      -2.342   1.682  -0.385  1.00  0.00     0.020 A 
ATOM      9  C   UNL     1       0.987   2.393   1.267  1.00  0.00     0.044 C 
ATOM     10  C   UNL     1      -0.239   2.533   0.402  1.00  0.00    -0.050 A 
ATOM     11  C   UNL     1      -1.211   1.554   0.420  1.00  0.00     0.015 A 
ATOM     12  C   UNL     1      -0.388   3.644  -0.409  1.00  0.00     0.003 A 
ATOM     13  C   UNL     1      -1.511   3.780  -1.206  1.00  0.00     0.001 A 
ATOM     14  C   UNL     1      -2.489   2.808  -1.196  1.00  0.00     0.012 A 
ENDBRANCH   3   8
BRANCH   4  15
ATOM     15  C   UNL     1      -5.359   2.101  -0.984  1.00  0.00     0.226 C 
BRANCH  15  16
ATOM     16  C   UNL     1      -5.461   2.227  -2.482  1.00  0.00     0.237 C 
ATOM     17  O   UNL     1      -5.047   1.337  -3.195  1.00  0.00    -0.273 OA
ATOM     18  N   UNL     1      -6.014   3.327  -3.030  1.00  0.00    -0.368 N 
ATOM     19  H   UNL     1      -6.366   4.082  -2.424  1.00  0.00     0.159 HD
ATOM     20  H   UNL     1      -6.084   3.413  -4.054  1.00  0.00     0.159 HD
ENDBRANCH  15  16
ENDBRANCH   4  15
ENDBRANCH   1   2
BRANCH   1  21
ATOM     21  N   UNL     1      -4.986  -2.943   1.434  1.00  0.00    -0.273 NA
ATOM     22  C   UNL     1      -5.463  -4.315   1.652  1.00  0.00     0.148 C 
ATOM     23  C   UNL     1      -3.827  -2.649   2.289  1.00  0.00     0.148 C 
ATOM     24  C   UNL     1      -5.859  -4.488   3.120  1.00  0.00     0.278 C 
ATOM     25  C   UNL     1      -4.223  -2.822   3.757  1.00  0.00     0.278 C 
ATOM     26  N   UNL     1      -4.700  -4.195   3.975  1.00  0.00    -0.329 N 
ATOM     27  H   UNL     1      -3.941  -4.840   3.714  1.00  0.00     0.348 HD
BRANCH  26  28
ATOM     28  C   UNL     1      -5.019  -4.423   5.390  1.00  0.00     0.299 C 
BRANCH  28  29
ATOM     29  C   UNL     1      -3.845  -4.015   6.242  1.00  0.00     0.014 A 
ATOM     30  C   UNL     1      -2.700  -4.827   6.302  1.00  0.00    -0.010 A 
ATOM     31  C   UNL     1      -3.890  -2.860   6.962  1.00  0.00     0.010 A 
ATOM     32  C   UNL     1      -1.603  -4.424   7.105  1.00  0.00    -0.018 A 
ATOM     33  C   UNL     1      -2.615  -6.024   5.570  1.00  0.00     0.009 A 
ATOM     34  C   UNL     1      -2.814  -2.467   7.755  1.00  0.00     0.001 A 
ATOM     35  C   UNL     1      -1.687  -3.226   7.833  1.00  0.00     0.009 A 
ATOM     36  C   UNL     1      -0.456  -5.234   7.160  1.00  0.00     0.009 A 
ATOM     37  C   UNL     1      -1.488  -6.782   5.648  1.00  0.00     0.001 A 
ATOM     38  C   UNL     1      -0.411  -6.388   6.441  1.00  0.00     0.001 A 
ENDBRANCH  28  29
ENDBRANCH  26  28
ENDBRANCH   1  21
TORSDOF 7
