REMARK SMILES CCOc1cc([C@H]2NC(=S)N(c3ccccc3)C(C)=C2C(=O)Nc2ccccc2)ccc1O
REMARK SMILES IDX 7 1 20 2 18 3 11 4 9 5 10 6 8 7 19 8 6 10 4 11 32 12 5 13
REMARK SMILES IDX 31 14 30 15 3 16 2 17 1 18 33 19 21 21 22 22 23 23 24 25
REMARK SMILES IDX 29 26 25 27 28 28 26 29 27 30 12 31 17 32 13 33 16 34 14 35
REMARK SMILES IDX 15 36
REMARK H PARENT 8 9 33 20 23 24
REMARK Flexibility Score: inf
ROOT
ATOM      1  C   UNL     1       6.151  -1.555  -0.286  1.00  0.00     0.150 C 
ATOM      2  C   UNL     1       6.298  -0.494  -1.357  1.00  0.00     0.064 C 
ATOM      3  C   UNL     1       5.201   0.220  -1.689  1.00  0.00     0.033 C 
ATOM      4  N   UNL     1       4.000  -0.008  -1.078  1.00  0.00    -0.291 N 
ATOM      5  C   UNL     1       3.815  -0.928  -0.123  1.00  0.00     0.178 C 
ATOM      6  S   UNL     1       2.258  -1.106   0.566  1.00  0.00    -0.040 S 
ATOM      7  N   UNL     1       4.814  -1.722   0.310  1.00  0.00    -0.351 N 
ATOM      8  C   UNL     1       5.304   1.286  -2.749  1.00  0.00     0.065 C 
ATOM      9  H   UNL     1       4.647  -2.429   1.040  1.00  0.00     0.163 HD
ENDROOT
BRANCH   1  10
ATOM     10  C   UNL     1       7.117  -1.232   0.824  1.00  0.00    -0.017 A 
ATOM     11  C   UNL     1       9.106  -1.746   2.060  1.00  0.00     0.161 A 
ATOM     12  C   UNL     1       8.889  -0.633   2.867  1.00  0.00     0.157 A 
ATOM     13  C   UNL     1       8.214  -2.044   1.043  1.00  0.00     0.056 A 
ATOM     14  C   UNL     1       7.784   0.174   2.647  1.00  0.00     0.050 A 
ATOM     15  C   UNL     1       6.901  -0.127   1.626  1.00  0.00     0.010 A 
BRANCH  11  16
ATOM     16  O   UNL     1      10.188  -2.541   2.273  1.00  0.00    -0.490 OA
BRANCH  16  17
ATOM     17  C   UNL     1      10.392  -3.618   1.356  1.00  0.00     0.226 C 
ATOM     18  C   UNL     1      11.623  -4.423   1.780  1.00  0.00     0.049 C 
ENDBRANCH  16  17
ENDBRANCH  11  16
BRANCH  12  19
ATOM     19  O   UNL     1       9.758  -0.339   3.871  1.00  0.00    -0.504 OA
ATOM     20  H   UNL     1      10.640  -0.261   3.429  1.00  0.00     0.293 HD
ENDBRANCH  12  19
ENDBRANCH   1  10
BRANCH   2  21
ATOM     21  C   UNL     1       7.543  -0.259  -1.989  1.00  0.00     0.255 C 
ATOM     22  O   UNL     1       7.665   0.668  -2.769  1.00  0.00    -0.269 OA
ATOM     23  N   UNL     1       8.594  -1.062  -1.728  1.00  0.00    -0.322 N 
ATOM     24  H   UNL     1       8.465  -1.907  -1.152  1.00  0.00     0.170 HD
BRANCH  23  25
ATOM     25  C   UNL     1       9.857  -0.749  -2.238  1.00  0.00     0.041 A 
ATOM     26  C   UNL     1      10.744  -1.765  -2.571  1.00  0.00     0.026 A 
ATOM     27  C   UNL     1      10.226   0.578  -2.419  1.00  0.00     0.026 A 
ATOM     28  C   UNL     1      11.992  -1.452  -3.075  1.00  0.00     0.002 A 
ATOM     29  C   UNL     1      11.477   0.883  -2.917  1.00  0.00     0.002 A 
ATOM     30  C   UNL     1      12.358  -0.130  -3.248  1.00  0.00     0.000 A 
ENDBRANCH  23  25
ENDBRANCH   2  21
BRANCH   4  31
ATOM     31  C   UNL     1       2.901   0.769  -1.469  1.00  0.00     0.048 A 
ATOM     32  C   UNL     1       2.609   1.949  -0.798  1.00  0.00     0.027 A 
ATOM     33  C   UNL     1       2.102   0.360  -2.528  1.00  0.00     0.027 A 
ATOM     34  C   UNL     1       1.525   2.712  -1.185  1.00  0.00     0.002 A 
ATOM     35  C   UNL     1       1.020   1.127  -2.911  1.00  0.00     0.002 A 
ATOM     36  C   UNL     1       0.731   2.302  -2.241  1.00  0.00     0.000 A 
ENDBRANCH   4  31
TORSDOF 7
