REMARK SMILES CCCCCCOc1ccc(CNC(=O)CCSc2nc(N)c3c4c(sc3n2)COC(C)(C)C4)cc1
REMARK SMILES IDX 8 1 9 2 10 3 11 4 35 5 36 6 7 7 6 8 5 9 4 10 3 11 2 12 1 13
REMARK SMILES IDX 12 14 13 15 14 16 15 18 16 19 17 20 18 21 19 22 28 23 20 24
REMARK SMILES IDX 27 25 21 26 23 27 26 28 24 29 25 30 34 31 29 32 31 33 30 34
REMARK SMILES IDX 32 35 33 36 22 37
REMARK H PARENT 13 17 22 38 22 39
REMARK Flexibility Score: inf
ROOT
ATOM      1  C   UNL     1       4.493   1.701  -0.172  1.00  0.00     0.119 A 
ATOM      2  C   UNL     1       3.166   1.315  -0.055  1.00  0.00     0.047 A 
ATOM      3  C   UNL     1       2.836  -0.027  -0.044  1.00  0.00     0.009 A 
ATOM      4  C   UNL     1       3.828  -0.984  -0.150  1.00  0.00    -0.029 A 
ATOM      5  C   UNL     1       5.152  -0.602  -0.267  1.00  0.00     0.009 A 
ATOM      6  C   UNL     1       5.486   0.739  -0.278  1.00  0.00     0.047 A 
ENDROOT
BRANCH   1   7
ATOM      7  O   UNL     1       4.819   3.020  -0.183  1.00  0.00    -0.494 OA
BRANCH   7   8
ATOM      8  C   UNL     1       6.206   3.344  -0.306  1.00  0.00     0.229 C 
BRANCH   8   9
ATOM      9  C   UNL     1       6.376   4.865  -0.300  1.00  0.00     0.042 C 
BRANCH   9  10
ATOM     10  C   UNL     1       7.861   5.212  -0.432  1.00  0.00     0.003 C 
BRANCH  10  11
ATOM     11  C   UNL     1       8.031   6.732  -0.425  1.00  0.00    -0.000 C 
BRANCH  11  12
ATOM     12  C   UNL     1       9.515   7.080  -0.557  1.00  0.00    -0.003 C 
ATOM     13  C   UNL     1       9.686   8.600  -0.551  1.00  0.00     0.004 C 
ENDBRANCH  11  12
ENDBRANCH  10  11
ENDBRANCH   9  10
ENDBRANCH   8   9
ENDBRANCH   7   8
ENDBRANCH   1   7
BRANCH   4  14
ATOM     14  C   UNL     1       3.466  -2.447  -0.138  1.00  0.00     0.151 C 
BRANCH  14  15
ATOM     15  N   UNL     1       3.221  -2.901  -1.510  1.00  0.00    -0.352 N 
ATOM     16  C   UNL     1       2.880  -4.184  -1.744  1.00  0.00     0.221 C 
ATOM     17  H   UNL     1       3.310  -2.240  -2.294  1.00  0.00     0.163 HD
ATOM     18  O   UNL     1       2.776  -4.962  -0.820  1.00  0.00    -0.275 OA
BRANCH  16  19
ATOM     19  C   UNL     1       2.628  -4.650  -3.155  1.00  0.00     0.111 C 
BRANCH  19  20
ATOM     20  C   UNL     1       2.260  -6.136  -3.142  1.00  0.00     0.088 C 
BRANCH  20  21
ATOM     21  S   UNL     1       1.958  -6.696  -4.836  1.00  0.00    -0.086 SA
BRANCH  21  22
ATOM     22  C   UNL     1       1.567  -8.387  -4.534  1.00  0.00     0.190 A 
ATOM     23  N   UNL     1       1.272  -9.180  -5.555  1.00  0.00    -0.211 NA
ATOM     24  N   UNL     1       1.579  -8.846  -3.287  1.00  0.00    -0.205 NA
ATOM     25  C   UNL     1       0.977 -10.449  -5.349  1.00  0.00     0.130 A 
ATOM     26  C   UNL     1       1.290 -10.103  -2.998  1.00  0.00     0.137 A 
ATOM     27  C   UNL     1       0.964 -11.003  -4.053  1.00  0.00     0.057 A 
ATOM     28  S   UNL     1       0.535 -11.818  -6.388  1.00  0.00    -0.118 S 
ATOM     29  C   UNL     1       0.619 -12.421  -3.973  1.00  0.00    -0.016 A 
ATOM     30  C   UNL     1       0.349 -13.054  -5.135  1.00  0.00     0.037 A 
ATOM     31  C   UNL     1       0.552 -13.196  -2.659  1.00  0.00     0.072 C 
ATOM     32  C   UNL     1      -0.025 -14.496  -5.292  1.00  0.00     0.207 C 
ATOM     33  C   UNL     1      -0.249 -14.478  -2.905  1.00  0.00     0.067 C 
ATOM     34  O   UNL     1       0.260 -15.164  -4.053  1.00  0.00    -0.370 OA
ATOM     35  C   UNL     1      -1.718 -14.122  -3.137  1.00  0.00     0.042 C 
ATOM     36  C   UNL     1      -0.135 -15.387  -1.679  1.00  0.00     0.042 C 
BRANCH  26  37
ATOM     37  N   UNL     1       1.307 -10.541  -1.687  1.00  0.00    -0.383 N 
ATOM     38  H   UNL     1       1.548  -9.883  -0.932  1.00  0.00     0.158 HD
ATOM     39  H   UNL     1       1.081 -11.521  -1.465  1.00  0.00     0.158 HD
ENDBRANCH  26  37
ENDBRANCH  21  22
ENDBRANCH  20  21
ENDBRANCH  19  20
ENDBRANCH  16  19
ENDBRANCH  14  15
ENDBRANCH   4  14
TORSDOF 13
