REMARK SMILES O=C1c2ccccc2C(=O)N1CCOc1ccccc1C[NH2+]C[C@H](O)c1cc(Br)cs1
REMARK SMILES IDX 18 1 17 2 16 3 15 4 20 5 19 6 21 7 22 8 23 11 24 12 26 13
REMARK SMILES IDX 31 14 27 15 30 16 28 17 29 18 25 19 14 21 13 22 12 23 11 24
REMARK SMILES IDX 9 25 2 26 8 27 10 28 1 29 3 30 7 31 4 32 6 33 5 34
REMARK H PARENT 22 9 22 10 25 20
REMARK Flexibility Score: inf
ROOT
ATOM      1  C   UNL     1       1.746  -8.296   2.960  1.00  0.00     0.001 A 
ATOM      2  C   UNL     1       3.005  -8.755   2.617  1.00  0.00     0.004 A 
ATOM      3  C   UNL     1       4.011  -7.856   2.320  1.00  0.00     0.047 A 
ATOM      4  C   UNL     1       3.758  -6.493   2.365  1.00  0.00     0.128 A 
ATOM      5  C   UNL     1       2.494  -6.036   2.709  1.00  0.00     0.048 A 
ATOM      6  C   UNL     1       1.493  -6.938   3.011  1.00  0.00     0.013 A 
ENDROOT
BRANCH   5   7
ATOM      7  C   UNL     1       2.216  -4.556   2.760  1.00  0.00     0.301 C 
BRANCH   7   8
ATOM      8  N   UNL     1       1.987  -4.059   1.390  1.00  0.00    -0.340 N 
ATOM      9  H   UNL     1       2.824  -4.240   0.817  1.00  0.00     0.346 HD
ATOM     10  H   UNL     1       1.183  -4.554   0.976  1.00  0.00     0.346 HD
BRANCH   8  11
ATOM     11  C   UNL     1       1.712  -2.611   1.409  1.00  0.00     0.298 C 
BRANCH  11  12
ATOM     12  C   UNL     1       1.479  -2.125  -0.024  1.00  0.00     0.209 C 
BRANCH  12  13
ATOM     13  C   UNL     1       1.196  -0.645  -0.013  1.00  0.00     0.040 A 
ATOM     14  S   UNL     1       2.348   0.719  -0.017  1.00  0.00    -0.145 S 
ATOM     15  C   UNL     1       0.002  -0.004   0.002  1.00  0.00     0.034 A 
ATOM     16  C   UNL     1       1.160   2.052   0.002  1.00  0.00     0.080 A 
ATOM     17  C   UNL     1      -0.017   1.379   0.010  1.00  0.00     0.029 A 
ATOM     18  Br  UNL     1      -1.659   2.316   0.022  1.00  0.00    -0.050 Br
ENDBRANCH  12  13
BRANCH  12  19
ATOM     19  O   UNL     1       2.645  -2.382  -0.809  1.00  0.00    -0.382 OA
ATOM     20  H   UNL     1       2.831  -3.355  -0.817  1.00  0.00     0.211 HD
ENDBRANCH  12  19
ENDBRANCH  11  12
ENDBRANCH   8  11
ENDBRANCH   7   8
ENDBRANCH   5   7
BRANCH   4  21
ATOM     21  O   UNL     1       4.746  -5.607   2.073  1.00  0.00    -0.491 OA
BRANCH  21  22
ATOM     22  C   UNL     1       6.022  -6.149   1.727  1.00  0.00     0.251 C 
BRANCH  22  23
ATOM     23  C   UNL     1       6.998  -5.008   1.434  1.00  0.00     0.171 C 
BRANCH  23  24
ATOM     24  N   UNL     1       7.225  -4.233   2.655  1.00  0.00    -0.271 N 
ATOM     25  C   UNL     1       8.194  -4.491   3.552  1.00  0.00     0.261 C 
ATOM     26  C   UNL     1       6.495  -3.165   3.026  1.00  0.00     0.261 C 
ATOM     27  C   UNL     1       8.104  -3.496   4.642  1.00  0.00     0.053 A 
ATOM     28  O   UNL     1       9.007  -5.390   3.479  1.00  0.00    -0.269 OA
ATOM     29  O   UNL     1       5.558  -2.699   2.409  1.00  0.00    -0.269 OA
ATOM     30  C   UNL     1       7.023  -2.656   4.309  1.00  0.00     0.053 A 
ATOM     31  C   UNL     1       8.819  -3.270   5.807  1.00  0.00     0.015 A 
ATOM     32  C   UNL     1       6.680  -1.608   5.149  1.00  0.00     0.015 A 
ATOM     33  C   UNL     1       8.465  -2.218   6.638  1.00  0.00     0.001 A 
ATOM     34  C   UNL     1       7.405  -1.394   6.311  1.00  0.00     0.001 A 
ENDBRANCH  23  24
ENDBRANCH  22  23
ENDBRANCH  21  22
ENDBRANCH   4  21
TORSDOF 10
