REMARK SMILES O=C(CSCc1nc(=O)c2c3c(sc2[nH]1)CCC3)Nc1ccccc1Oc1ccccc1Cl
REMARK SMILES IDX 19 1 2 2 1 3 20 5 22 6 21 7 23 8 24 9 25 10 26 11 27 12
REMARK SMILES IDX 32 13 28 14 31 15 33 16 29 17 30 18 3 19 4 20 5 21 6 22
REMARK SMILES IDX 15 23 7 24 14 25 8 27 10 28 13 29 9 30 11 31 12 32 18 33
REMARK SMILES IDX 16 34 17 35
REMARK H PARENT 19 4 15 26
REMARK Flexibility Score: inf
ROOT
ATOM      1  N   UNL     1      -2.611   4.293 -11.184  1.00  0.00    -0.322 N 
ATOM      2  C   UNL     1      -2.637   3.614 -10.020  1.00  0.00     0.234 C 
ATOM      3  O   UNL     1      -3.695   3.401  -9.466  1.00  0.00    -0.274 OA
ATOM      4  H   UNL     1      -1.709   4.571 -11.597  1.00  0.00     0.170 HD
ENDROOT
BRANCH   1   5
ATOM      5  C   UNL     1      -3.809   4.621 -11.831  1.00  0.00     0.084 A 
ATOM      6  C   UNL     1      -6.151   5.128 -11.735  1.00  0.00     0.002 A 
ATOM      7  C   UNL     1      -4.971   4.800 -11.095  1.00  0.00     0.030 A 
ATOM      8  C   UNL     1      -6.179   5.269 -13.110  1.00  0.00     0.004 A 
ATOM      9  C   UNL     1      -5.027   5.086 -13.852  1.00  0.00     0.049 A 
ATOM     10  C   UNL     1      -3.838   4.762 -13.217  1.00  0.00     0.151 A 
BRANCH  10  11
ATOM     11  O   UNL     1      -2.704   4.582 -13.944  1.00  0.00    -0.454 OA
BRANCH  11  12
ATOM     12  C   UNL     1      -2.750   4.855 -15.275  1.00  0.00     0.146 A 
ATOM     13  C   UNL     1      -2.561   6.155 -15.725  1.00  0.00     0.083 A 
ATOM     14  C   UNL     1      -2.979   3.834 -16.186  1.00  0.00     0.049 A 
ATOM     15  C   UNL     1      -2.607   6.429 -17.079  1.00  0.00     0.024 A 
ATOM     16  Cl  UNL     1      -2.267   7.434 -14.589  1.00  0.00    -0.080 Cl
ATOM     17  C   UNL     1      -3.029   4.115 -17.538  1.00  0.00     0.004 A 
ATOM     18  C   UNL     1      -2.841   5.410 -17.984  1.00  0.00     0.002 A 
ENDBRANCH  11  12
ENDBRANCH  10  11
ENDBRANCH   1   5
BRANCH   2  19
ATOM     19  C   UNL     1      -1.352   3.120  -9.406  1.00  0.00     0.170 C 
BRANCH  19  20
ATOM     20  S   UNL     1      -1.718   2.251  -7.856  1.00  0.00    -0.144 SA
BRANCH  20  21
ATOM     21  C   UNL     1      -0.089   1.728  -7.252  1.00  0.00     0.145 C 
BRANCH  21  22
ATOM     22  C   UNL     1      -0.251   0.983  -5.952  1.00  0.00     0.121 A 
ATOM     23  N   UNL     1      -1.447   0.816  -5.454  1.00  0.00    -0.334 N 
ATOM     24  N   UNL     1       0.849   0.498  -5.321  1.00  0.00    -0.195 NA
ATOM     25  C   UNL     1      -1.623   0.163  -4.308  1.00  0.00     0.107 A 
ATOM     26  H   UNL     1      -2.264   1.195  -5.954  1.00  0.00     0.169 HD
ATOM     27  C   UNL     1       0.749  -0.173  -4.157  1.00  0.00     0.281 A 
ATOM     28  C   UNL     1      -0.549  -0.373  -3.586  1.00  0.00     0.080 A 
ATOM     29  S   UNL     1      -3.034  -0.267  -3.323  1.00  0.00    -0.122 S 
ATOM     30  O   UNL     1       1.745  -0.604  -3.602  1.00  0.00    -0.267 OA
ATOM     31  C   UNL     1      -0.893  -1.070  -2.337  1.00  0.00    -0.019 A 
ATOM     32  C   UNL     1      -2.196  -1.125  -2.011  1.00  0.00     0.011 A 
ATOM     33  C   UNL     1      -0.094  -1.794  -1.249  1.00  0.00     0.038 C 
ATOM     34  C   UNL     1      -2.427  -1.856  -0.716  1.00  0.00     0.047 C 
ATOM     35  C   UNL     1      -1.039  -1.888  -0.035  1.00  0.00     0.010 C 
ENDBRANCH  21  22
ENDBRANCH  20  21
ENDBRANCH  19  20
ENDBRANCH   2  19
TORSDOF 7
