REMARK SMILES Cc1c(C(=O)NN2C(=O)[N-][C@](C)(CCc3ccccc3)C2=O)oc2ccc(Br)cc12
REMARK SMILES IDX 7 1 21 2 22 3 11 4 10 5 8 6 9 7 12 8 6 9 4 10 5 11 3 13 1 14
REMARK SMILES IDX 2 15 30 16 23 17 24 18 29 19 25 20 27 21 26 22 28 23 13 24
REMARK SMILES IDX 14 25 15 26 20 27 16 28 19 29 17 30 18 31
REMARK H PARENT 6 12
REMARK Flexibility Score: inf
ROOT
ATOM      1  N   UNL     1      -4.831   6.581  -2.812  1.00  0.00    -0.301 N 
ATOM      2  C   UNL     1      -4.772   5.235  -2.784  1.00  0.00     0.170 C 
ATOM      3  O   UNL     1      -5.009   4.472  -3.696  1.00  0.00    -0.297 OA
ATOM      4  C   UNL     1      -4.346   4.872  -1.375  1.00  0.00     0.035 C 
ATOM      5  N   UNL     1      -4.201   6.179  -0.710  1.00  0.00    -0.416 NA
ATOM      6  C   UNL     1      -4.505   7.114  -1.629  1.00  0.00     0.177 C 
ATOM      7  O   UNL     1      -4.486   8.309  -1.408  1.00  0.00    -0.297 OA
ATOM      8  C   UNL     1      -5.422   4.033  -0.683  1.00  0.00     0.019 C 
ENDROOT
BRANCH   1   9
ATOM      9  N   UNL     1      -5.188   7.330  -3.941  1.00  0.00    -0.324 N 
ATOM     10  C   UNL     1      -4.242   7.986  -4.642  1.00  0.00     0.290 C 
ATOM     11  O   UNL     1      -3.078   7.927  -4.294  1.00  0.00    -0.265 OA
ATOM     12  H   UNL     1      -6.174   7.379  -4.235  1.00  0.00     0.168 HD
BRANCH  10  13
ATOM     13  C   UNL     1      -4.617   8.771  -5.826  1.00  0.00     0.195 A 
ATOM     14  C   UNL     1      -2.263   9.596  -6.419  1.00  0.00     0.049 C 
ATOM     15  C   UNL     1      -3.754   9.475  -6.603  1.00  0.00     0.008 A 
ATOM     16  C   UNL     1      -4.563  10.089  -7.655  1.00  0.00     0.025 A 
ATOM     17  O   UNL     1      -5.873   8.907  -6.302  1.00  0.00    -0.451 OA
ATOM     18  C   UNL     1      -5.888   9.690  -7.399  1.00  0.00     0.135 A 
ATOM     19  C   UNL     1      -4.279  10.915  -8.745  1.00  0.00     0.028 A 
ATOM     20  C   UNL     1      -6.903  10.128  -8.242  1.00  0.00     0.049 A 
ATOM     21  C   UNL     1      -5.293  11.334  -9.560  1.00  0.00     0.018 A 
ATOM     22  C   UNL     1      -6.602  10.942  -9.312  1.00  0.00     0.019 A 
ATOM     23  Br  UNL     1      -4.910  12.453 -11.036  1.00  0.00    -0.051 Br
ENDBRANCH  10  13
ENDBRANCH   1   9
BRANCH   4  24
ATOM     24  C   UNL     1      -3.011   4.125  -1.391  1.00  0.00     0.018 C 
BRANCH  24  25
ATOM     25  C   UNL     1      -2.553   3.869   0.045  1.00  0.00     0.036 C 
BRANCH  25  26
ATOM     26  C   UNL     1      -1.238   3.133   0.029  1.00  0.00    -0.048 A 
ATOM     27  C   UNL     1      -0.050   3.840   0.022  1.00  0.00     0.004 A 
ATOM     28  C   UNL     1      -1.219   1.751   0.017  1.00  0.00     0.004 A 
ATOM     29  C   UNL     1       1.156   3.165   0.008  1.00  0.00     0.000 A 
ATOM     30  C   UNL     1      -0.013   1.076   0.008  1.00  0.00     0.000 A 
ATOM     31  C   UNL     1       1.175   1.783   0.000  1.00  0.00     0.000 A 
ENDBRANCH  25  26
ENDBRANCH  24  25
ENDBRANCH   4  24
TORSDOF 5
