REMARK SMILES CCCCNC(=O)[C@H](C)N1C(=O)c2ccccc2[C@@H]1c1c(-c2ccc(C)cc2)[nH]c2ccccc12
REMARK SMILES IDX 8 1 9 2 6 3 5 4 7 6 4 7 3 8 2 9 1 10 10 11 11 12 19 13 13 14
REMARK SMILES IDX 12 15 18 16 14 17 17 18 15 19 16 20 20 21 21 22 35 23 29 24
REMARK SMILES IDX 30 25 34 26 31 28 33 29 32 30 22 31 28 32 23 33 27 34 24 35
REMARK SMILES IDX 25 36 26 37
REMARK H PARENT 5 5 29 27
REMARK Flexibility Score: inf
ROOT
ATOM      1  C   UNL     1      -1.549   3.806   2.677  1.00  0.00     0.172 C 
ATOM      2  C   UNL     1      -2.984   3.277   2.688  1.00  0.00     0.042 C 
ENDROOT
BRANCH   1   3
ATOM      3  C   UNL     1      -0.843   3.320   1.438  1.00  0.00     0.242 C 
ATOM      4  N   UNL     1      -0.704   1.998   1.216  1.00  0.00    -0.354 N 
ATOM      5  H   UNL     1      -1.080   1.320   1.894  1.00  0.00     0.163 HD
ATOM      6  O   UNL     1      -0.401   4.119   0.639  1.00  0.00    -0.273 OA
BRANCH   4   7
ATOM      7  C   UNL     1      -0.019   1.526   0.010  1.00  0.00     0.116 C 
BRANCH   7   8
ATOM      8  C   UNL     1       0.002  -0.004   0.002  1.00  0.00     0.021 C 
BRANCH   8   9
ATOM      9  C   UNL     1       0.718  -0.497  -1.257  1.00  0.00    -0.002 C 
ATOM     10  C   UNL     1       0.739  -2.027  -1.265  1.00  0.00     0.004 C 
ENDBRANCH   8   9
ENDBRANCH   7   8
ENDBRANCH   4   7
ENDBRANCH   1   3
BRANCH   1  11
ATOM     11  N   UNL     1      -1.569   5.271   2.685  1.00  0.00    -0.316 N 
ATOM     12  C   UNL     1      -2.130   6.052   1.746  1.00  0.00     0.255 C 
ATOM     13  C   UNL     1      -0.974   6.128   3.717  1.00  0.00     0.151 C 
ATOM     14  C   UNL     1      -1.955   7.475   2.092  1.00  0.00     0.045 A 
ATOM     15  O   UNL     1      -2.701   5.643   0.754  1.00  0.00    -0.269 OA
ATOM     16  C   UNL     1      -1.247   7.550   3.294  1.00  0.00    -0.008 A 
ATOM     17  C   UNL     1      -2.349   8.653   1.455  1.00  0.00     0.014 A 
ATOM     18  C   UNL     1      -0.942   8.773   3.846  1.00  0.00     0.007 A 
ATOM     19  C   UNL     1      -2.038   9.874   2.017  1.00  0.00     0.001 A 
ATOM     20  C   UNL     1      -1.336   9.937   3.208  1.00  0.00     0.000 A 
BRANCH  13  21
ATOM     21  C   UNL     1       0.511   5.888   3.797  1.00  0.00     0.013 A 
ATOM     22  C   UNL     1       1.245   5.738   4.928  1.00  0.00     0.052 A 
ATOM     23  C   UNL     1       1.437   5.779   2.671  1.00  0.00     0.006 A 
ATOM     24  N   UNL     1       2.565   5.533   4.597  1.00  0.00    -0.354 N 
ATOM     25  C   UNL     1       2.711   5.557   3.228  1.00  0.00     0.046 A 
ATOM     26  C   UNL     1       1.286   5.851   1.283  1.00  0.00     0.011 A 
ATOM     27  H   UNL     1       3.328   5.385   5.272  1.00  0.00     0.167 HD
ATOM     28  C   UNL     1       3.807   5.410   2.383  1.00  0.00     0.027 A 
ATOM     29  C   UNL     1       2.376   5.705   0.474  1.00  0.00     0.001 A 
ATOM     30  C   UNL     1       3.635   5.485   1.018  1.00  0.00     0.002 A 
BRANCH  22  31
ATOM     31  C   UNL     1       0.709   5.784   6.305  1.00  0.00    -0.002 A 
ATOM     32  C   UNL     1       1.103   4.829   7.243  1.00  0.00     0.010 A 
ATOM     33  C   UNL     1      -0.190   6.786   6.674  1.00  0.00     0.010 A 
ATOM     34  C   UNL     1       0.599   4.878   8.527  1.00  0.00     0.004 A 
ATOM     35  C   UNL     1      -0.691   6.821   7.959  1.00  0.00     0.004 A 
ATOM     36  C   UNL     1      -0.296   5.871   8.884  1.00  0.00    -0.051 A 
ATOM     37  C   UNL     1      -0.842   5.918  10.288  1.00  0.00     0.044 C 
ENDBRANCH  22  31
ENDBRANCH  13  21
ENDBRANCH   1  11
TORSDOF 7
