REMARK SMILES Cc1ccc(C)c(C(=O)c2ccccc2C(=O)OCC(=O)N[C@@H](c2ccc(F)cc2)c2nccn2C)c1
REMARK SMILES IDX 18 1 16 2 17 3 15 4 10 5 11 6 14 7 12 8 13 9 8 10 9 11 7 12
REMARK SMILES IDX 1 13 2 14 37 15 3 16 4 17 5 18 6 19 19 20 20 21 21 22 22 23
REMARK SMILES IDX 23 25 24 26 30 27 25 28 29 29 26 30 27 31 28 32 31 33 35 34
REMARK SMILES IDX 32 35 34 36 36 37 33 38
REMARK H PARENT 22 24
REMARK Flexibility Score: inf
ROOT
ATOM      1  O   UNL     1       3.770   2.307  -0.815  1.00  0.00    -0.452 OA
ENDROOT
BRANCH   1   2
ATOM      2  C   UNL     1       4.913   1.674  -0.488  1.00  0.00     0.339 C 
ATOM      3  O   UNL     1       4.926   0.465  -0.370  1.00  0.00    -0.246 OA
BRANCH   2   4
ATOM      4  C   UNL     1       6.152   2.450  -0.272  1.00  0.00     0.071 A 
ATOM      5  C   UNL     1       7.356   1.790   0.042  1.00  0.00     0.037 A 
ATOM      6  C   UNL     1       8.517   2.535   0.243  1.00  0.00     0.013 A 
ATOM      7  C   UNL     1       6.138   3.838  -0.384  1.00  0.00     0.016 A 
ATOM      8  C   UNL     1       8.481   3.912   0.133  1.00  0.00     0.001 A 
ATOM      9  C   UNL     1       7.298   4.560  -0.176  1.00  0.00     0.001 A 
BRANCH   5  10
ATOM     10  C   UNL     1       7.389   0.317   0.158  1.00  0.00     0.194 C 
ATOM     11  O   UNL     1       7.414  -0.206   1.255  1.00  0.00    -0.289 OA
BRANCH  10  12
ATOM     12  C   UNL     1       7.391  -0.520  -1.059  1.00  0.00     0.026 A 
ATOM     13  C   UNL     1       7.081  -0.082  -4.806  1.00  0.00     0.044 C 
ATOM     14  C   UNL     1       7.243  -0.717  -3.449  1.00  0.00    -0.050 A 
ATOM     15  C   UNL     1       7.236   0.070  -2.316  1.00  0.00     0.016 A 
ATOM     16  C   UNL     1       7.393  -2.089  -3.341  1.00  0.00     0.004 A 
ATOM     17  C   UNL     1       7.542  -2.680  -2.099  1.00  0.00     0.004 A 
ATOM     18  C   UNL     1       7.542  -1.905  -0.958  1.00  0.00    -0.040 A 
ATOM     19  C   UNL     1       7.704  -2.550   0.394  1.00  0.00     0.045 C 
ENDBRANCH  10  12
ENDBRANCH   5  10
ENDBRANCH   2   4
ENDBRANCH   1   2
BRANCH   1  20
ATOM     20  C   UNL     1       2.592   1.481  -1.011  1.00  0.00     0.333 C 
BRANCH  20  21
ATOM     21  C   UNL     1       1.419   2.356  -1.369  1.00  0.00     0.258 C 
ATOM     22  O   UNL     1       1.561   3.558  -1.450  1.00  0.00    -0.271 OA
ATOM     23  N   UNL     1       0.211   1.804  -1.598  1.00  0.00    -0.339 N 
ATOM     24  H   UNL     1       0.089   0.783  -1.525  1.00  0.00     0.164 HD
BRANCH  23  25
ATOM     25  C   UNL     1      -0.928   2.654  -1.952  1.00  0.00     0.179 C 
BRANCH  25  26
ATOM     26  C   UNL     1      -1.933   1.848  -2.734  1.00  0.00    -0.018 A 
ATOM     27  C   UNL     1      -2.582   2.416  -3.815  1.00  0.00     0.009 A 
ATOM     28  C   UNL     1      -2.200   0.540  -2.375  1.00  0.00     0.009 A 
ATOM     29  C   UNL     1      -3.504   1.678  -4.534  1.00  0.00     0.039 A 
ATOM     30  C   UNL     1      -3.125  -0.198  -3.088  1.00  0.00     0.039 A 
ATOM     31  C   UNL     1      -3.776   0.369  -4.171  1.00  0.00     0.123 A 
ATOM     32  F   UNL     1      -4.676  -0.353  -4.873  1.00  0.00    -0.207 F 
ENDBRANCH  25  26
BRANCH  25  33
ATOM     33  C   UNL     1      -1.574   3.177  -0.694  1.00  0.00     0.135 A 
ATOM     34  N   UNL     1      -1.966   4.452  -0.483  1.00  0.00    -0.336 N 
ATOM     35  N   UNL     1      -1.851   2.472   0.368  1.00  0.00    -0.239 NA
ATOM     36  C   UNL     1      -2.501   4.507   0.776  1.00  0.00     0.107 A 
ATOM     37  C   UNL     1      -1.841   5.567  -1.424  1.00  0.00     0.151 C 
ATOM     38  C   UNL     1      -2.418   3.265   1.290  1.00  0.00     0.131 A 
ENDBRANCH  25  33
ENDBRANCH  23  25
ENDBRANCH  20  21
ENDBRANCH   1  20
TORSDOF 9
