REMARK SMILES COc1ccc(-c2nnc(SCC(=O)N/N=C/c3c(O)ccc4ccccc34)n2-c2ccccc2)cc1
REMARK SMILES IDX 12 1 11 2 10 3 7 4 29 5 8 6 9 7 6 8 3 9 37 10 4 11 36 12
REMARK SMILES IDX 5 13 2 14 1 15 30 16 35 17 31 18 34 19 32 20 33 21 13 22
REMARK SMILES IDX 14 23 15 24 16 26 17 27 18 28 19 29 28 30 21 31 23 32 27 33
REMARK SMILES IDX 22 34 24 35 26 36 25 37 20 38
REMARK H PARENT 15 25 20 39
REMARK Flexibility Score: inf
ROOT
ATOM      1  C   UNL     1      -3.863  10.168   0.088  1.00  0.00     0.180 C 
ENDROOT
BRANCH   1   2
ATOM      2  S   UNL     1      -3.520  11.945   0.092  1.00  0.00    -0.076 SA
BRANCH   2   3
ATOM      3  C   UNL     1      -5.166  12.574   0.111  1.00  0.00     0.196 A 
ATOM      4  C   UNL     1      -6.909  13.896   0.133  1.00  0.00     0.169 A 
ATOM      5  N   UNL     1      -5.531  13.893   0.125  1.00  0.00    -0.270 N 
ATOM      6  N   UNL     1      -7.296  12.641   0.131  1.00  0.00    -0.129 NA
ATOM      7  N   UNL     1      -6.272  11.865   0.118  1.00  0.00    -0.122 NA
BRANCH   4   8
ATOM      8  C   UNL     1      -7.786  15.085   0.145  1.00  0.00     0.020 A 
ATOM      9  C   UNL     1      -9.430  17.316   0.169  1.00  0.00     0.118 A 
ATOM     10  C   UNL     1      -8.086  17.449  -0.154  1.00  0.00     0.047 A 
ATOM     11  C   UNL     1      -9.952  16.067   0.481  1.00  0.00     0.047 A 
ATOM     12  C   UNL     1      -7.263  16.343  -0.162  1.00  0.00     0.016 A 
ATOM     13  C   UNL     1      -9.137  14.955   0.470  1.00  0.00     0.016 A 
BRANCH   9  14
ATOM     14  O   UNL     1     -10.236  18.409   0.181  1.00  0.00    -0.497 OA
ATOM     15  C   UNL     1      -9.634  19.662  -0.150  1.00  0.00     0.278 C 
ENDBRANCH   9  14
ENDBRANCH   4   8
BRANCH   5  16
ATOM     16  C   UNL     1      -4.682  15.008   0.129  1.00  0.00     0.050 A 
ATOM     17  C   UNL     1      -3.865  15.264  -0.964  1.00  0.00     0.027 A 
ATOM     18  C   UNL     1      -4.660  15.862   1.223  1.00  0.00     0.027 A 
ATOM     19  C   UNL     1      -3.029  16.364  -0.958  1.00  0.00     0.002 A 
ATOM     20  C   UNL     1      -3.818  16.957   1.226  1.00  0.00     0.002 A 
ATOM     21  C   UNL     1      -3.006  17.209   0.136  1.00  0.00     0.000 A 
ENDBRANCH   5  16
ENDBRANCH   2   3
ENDBRANCH   1   2
BRANCH   1  22
ATOM     22  C   UNL     1      -2.563   9.406   0.072  1.00  0.00     0.250 C 
ATOM     23  O   UNL     1      -1.508  10.005   0.065  1.00  0.00    -0.272 OA
ATOM     24  N   UNL     1      -2.572   8.058   0.066  1.00  0.00    -0.246 N 
ATOM     25  H   UNL     1      -3.467   7.549   0.072  1.00  0.00     0.193 HD
BRANCH  24  26
ATOM     26  N   UNL     1      -1.363   7.350   0.052  1.00  0.00    -0.181 NA
ATOM     27  C   UNL     1      -1.372   6.050   0.046  1.00  0.00     0.146 C 
BRANCH  27  28
ATOM     28  C   UNL     1      -0.104   5.307   0.031  1.00  0.00     0.044 A 
ATOM     29  C   UNL     1       1.117   5.981   0.022  1.00  0.00     0.125 A 
ATOM     30  C   UNL     1      -0.096   3.845   0.024  1.00  0.00    -0.006 A 
ATOM     31  C   UNL     1       2.316   5.269   0.007  1.00  0.00     0.047 A 
ATOM     32  C   UNL     1       1.148   3.168   0.008  1.00  0.00    -0.017 A 
ATOM     33  C   UNL     1      -1.286   3.107   0.031  1.00  0.00     0.009 A 
ATOM     34  C   UNL     1       2.342   3.910   0.000  1.00  0.00     0.012 A 
ATOM     35  C   UNL     1       1.163   1.762   0.000  1.00  0.00     0.009 A 
ATOM     36  C   UNL     1      -1.234   1.745   0.017  1.00  0.00     0.001 A 
ATOM     37  C   UNL     1      -0.013   1.076   0.008  1.00  0.00     0.001 A 
BRANCH  29  38
ATOM     38  O   UNL     1       1.138   7.338   0.028  1.00  0.00    -0.507 OA
ATOM     39  H   UNL     1       0.620   7.599   0.831  1.00  0.00     0.293 HD
ENDBRANCH  29  38
ENDBRANCH  27  28
ENDBRANCH  24  26
ENDBRANCH   1  22
TORSDOF 9
