REMARK SMILES CC(=O)NC[C@H](C)C[C@H]1C(=O)C(C)=C2[C@@]3(C)CC[C@@H]4[C@@H](CC=C5C[C@@H](OC(C)=O)CC[C@@]54C)[C@H]3C[C@]21O
REMARK SMILES IDX 8 1 9 2 13 3 12 4 10 5 14 6 11 7 36 8 15 9 35 10 34 11 17 12
REMARK SMILES IDX 16 13 20 14 18 15 19 16 21 17 32 18 22 19 23 20 31 21 33 22
REMARK SMILES IDX 24 23 30 24 25 25 37 26 26 28 27 29 29 30 28 31 6 32 7 33
REMARK SMILES IDX 5 34 4 35 2 36 3 38 1 39
REMARK H PARENT 37 27 4 37
REMARK Flexibility Score: inf
ROOT
ATOM      1  C   UNL     1       1.126  -1.028   1.173  1.00  0.00     0.020 C 
ENDROOT
BRANCH   1   2
ATOM      2  C   UNL     1       0.867  -0.273  -0.132  1.00  0.00     0.097 C 
ATOM      3  C   UNL     1      -1.390   2.842   0.106  1.00  0.00     0.048 C 
ATOM      4  C   UNL     1      -0.278   1.831  -0.006  1.00  0.00    -0.005 C 
ATOM      5  C   UNL     1      -0.497   0.391  -0.102  1.00  0.00     0.164 C 
ATOM      6  C   UNL     1       1.000   2.150  -0.034  1.00  0.00    -0.025 C 
ATOM      7  O   UNL     1      -1.571  -0.172  -0.149  1.00  0.00    -0.294 OA
ATOM      8  C   UNL     1       1.836   0.893  -0.279  1.00  0.00     0.097 C 
ATOM      9  C   UNL     1       2.072   3.190   0.185  1.00  0.00    -0.005 C 
ATOM     10  C   UNL     1       2.892   0.975   0.834  1.00  0.00     0.045 C 
ATOM     11  C   UNL     1       3.212   2.501   0.911  1.00  0.00     0.006 C 
ATOM     12  C   UNL     1       1.541   4.482   0.713  1.00  0.00     0.012 C 
ATOM     13  C   UNL     1       2.611   3.504  -1.212  1.00  0.00     0.016 C 
ATOM     14  C   UNL     1       3.345   2.855   2.383  1.00  0.00     0.001 C 
ATOM     15  C   UNL     1       1.592   4.584   2.234  1.00  0.00     0.006 C 
ATOM     16  C   UNL     1       3.033   4.300   2.671  1.00  0.00     0.003 C 
ATOM     17  C   UNL     1       2.329   1.977   3.192  1.00  0.00     0.031 C 
ATOM     18  C   UNL     1       3.217   4.635   4.138  1.00  0.00    -0.008 C 
ATOM     19  C   UNL     1       2.413   2.351   4.643  1.00  0.00    -0.027 C 
ATOM     20  C   UNL     1       2.799   3.523   5.055  1.00  0.00    -0.064 C 
ATOM     21  C   UNL     1       2.422   5.894   4.496  1.00  0.00     0.015 C 
ATOM     22  C   UNL     1       4.700   4.922   4.381  1.00  0.00     0.016 C 
ATOM     23  C   UNL     1       2.823   3.791   6.550  1.00  0.00     0.076 C 
ATOM     24  C   UNL     1       2.620   6.215   5.978  1.00  0.00     0.046 C 
ATOM     25  C   UNL     1       2.040   5.079   6.821  1.00  0.00     0.180 C 
BRANCH   8  26
ATOM     26  O   UNL     1       2.444   0.900  -1.572  1.00  0.00    -0.385 OA
ATOM     27  H   UNL     1       3.021   1.702  -1.642  1.00  0.00     0.211 HD
ENDBRANCH   8  26
BRANCH  25  28
ATOM     28  O   UNL     1       2.141   5.420   8.229  1.00  0.00    -0.462 OA
BRANCH  28  29
ATOM     29  C   UNL     1       1.202   4.918   9.047  1.00  0.00     0.302 C 
ATOM     30  O   UNL     1       0.325   4.218   8.601  1.00  0.00    -0.253 OA
ATOM     31  C   UNL     1       1.243   5.229  10.521  1.00  0.00     0.139 C 
ENDBRANCH  28  29
ENDBRANCH  25  28
ENDBRANCH   1   2
BRANCH   1  32
ATOM     32  C   UNL     1       0.154  -2.206   1.282  1.00  0.00     0.006 C 
ATOM     33  C   UNL     1       0.446  -3.212   0.168  1.00  0.00     0.009 C 
BRANCH  32  34
ATOM     34  C   UNL     1       0.328  -2.886   2.642  1.00  0.00     0.119 C 
BRANCH  34  35
ATOM     35  N   UNL     1      -0.681  -3.937   2.795  1.00  0.00    -0.356 N 
ATOM     36  C   UNL     1      -0.721  -4.674   3.922  1.00  0.00     0.216 C 
ATOM     37  H   UNL     1      -1.361  -4.111   2.040  1.00  0.00     0.163 HD
ATOM     38  O   UNL     1       0.079  -4.468   4.810  1.00  0.00    -0.275 OA
ATOM     39  C   UNL     1      -1.759  -5.755   4.079  1.00  0.00     0.114 C 
ENDBRANCH  34  35
ENDBRANCH  32  34
ENDBRANCH   1  32
TORSDOF 7
