REMARK SMILES CN(C)c1nc(N)nc(COC(=O)c2cc3c(s2)CC[C@H](C(C)(C)C)C3)n1
REMARK SMILES IDX 11 1 12 2 13 3 14 4 21 5 26 6 20 7 16 8 19 9 17 10 15 11
REMARK SMILES IDX 18 12 22 13 23 14 24 15 25 16 10 17 9 18 27 19 8 20 4 21
REMARK SMILES IDX 6 22 5 23 2 24 1 25 3 26 7 27
REMARK H PARENT 7 28 7 29
REMARK Flexibility Score: inf
ROOT
ATOM      1  O   UNL     1      -7.230  -4.091   1.242  1.00  0.00    -0.453 OA
ENDROOT
BRANCH   1   2
ATOM      2  C   UNL     1      -5.914  -3.937   1.494  1.00  0.00     0.348 C 
ATOM      3  O   UNL     1      -5.266  -4.867   1.935  1.00  0.00    -0.245 OA
BRANCH   2   4
ATOM      4  C   UNL     1      -5.265  -2.650   1.238  1.00  0.00     0.113 A 
ATOM      5  C   UNL     1      -2.164   1.050   1.278  1.00  0.00    -0.001 C 
ATOM      6  C   UNL     1      -2.141  -0.479   1.269  1.00  0.00     0.040 C 
ATOM      7  C   UNL     1      -2.907   1.568   0.043  1.00  0.00     0.010 C 
ATOM      8  C   UNL     1      -3.570  -0.992   1.103  1.00  0.00    -0.033 A 
ATOM      9  C   UNL     1      -4.403   1.260   0.201  1.00  0.00     0.047 C 
ATOM     10  C   UNL     1      -4.549  -0.170   0.620  1.00  0.00     0.009 A 
ATOM     11  C   UNL     1      -3.943  -2.285   1.425  1.00  0.00     0.031 A 
ATOM     12  S   UNL     1      -5.973  -1.140   0.600  1.00  0.00    -0.133 S 
BRANCH   5  13
ATOM     13  C   UNL     1      -0.729   1.579   1.267  1.00  0.00    -0.035 C 
ATOM     14  C   UNL     1      -0.013   1.086   0.008  1.00  0.00     0.011 C 
ATOM     15  C   UNL     1       0.011   1.072   2.506  1.00  0.00     0.011 C 
ATOM     16  C   UNL     1      -0.750   3.109   1.275  1.00  0.00     0.011 C 
ENDBRANCH   5  13
ENDBRANCH   2   4
ENDBRANCH   1   2
BRANCH   1  17
ATOM     17  C   UNL     1      -7.806  -5.394   1.520  1.00  0.00     0.310 C 
BRANCH  17  18
ATOM     18  C   UNL     1      -9.274  -5.378   1.180  1.00  0.00     0.173 A 
ATOM     19  N   UNL     1     -10.160  -5.040   2.100  1.00  0.00    -0.194 NA
ATOM     20  N   UNL     1      -9.672  -5.706  -0.037  1.00  0.00    -0.194 NA
ATOM     21  C   UNL     1     -11.457  -5.020   1.802  1.00  0.00     0.230 A 
ATOM     22  C   UNL     1     -10.968  -5.693  -0.341  1.00  0.00     0.225 A 
ATOM     23  N   UNL     1     -11.861  -5.349   0.580  1.00  0.00    -0.177 NA
BRANCH  21  24
ATOM     24  N   UNL     1     -12.381  -4.662   2.762  1.00  0.00    -0.347 N 
ATOM     25  C   UNL     1     -13.809  -4.646   2.435  1.00  0.00     0.146 C 
ATOM     26  C   UNL     1     -11.935  -4.299   4.109  1.00  0.00     0.146 C 
ENDBRANCH  21  24
BRANCH  22  27
ATOM     27  N   UNL     1     -11.382  -6.036  -1.612  1.00  0.00    -0.368 N 
ATOM     28  H   UNL     1     -10.689  -6.302  -2.325  1.00  0.00     0.159 HD
ATOM     29  H   UNL     1     -12.385  -6.026  -1.847  1.00  0.00     0.159 HD
ENDBRANCH  22  27
ENDBRANCH  17  18
ENDBRANCH   1  17
TORSDOF 7
