REMARK SMILES Cc1cc(C)c2nc(NC(=O)Cc3c(C)nc4nc(N)nn4c3C)sc2c1
REMARK SMILES IDX 12 1 10 2 9 3 11 5 8 6 1 7 2 8 27 9 3 10 26 11 4 12 6 13
REMARK SMILES IDX 25 14 5 15 7 16 13 17 23 18 14 19 22 20 24 21 16 22 15 23
REMARK SMILES IDX 17 24 21 25 18 26 19 27 20 28
REMARK H PARENT 9 4 20 29 20 30
REMARK Flexibility Score: inf
ROOT
ATOM      1  C   UNL     1       3.937   4.399  -0.011  1.00  0.00     0.139 C 
ENDROOT
BRANCH   1   2
ATOM      2  C   UNL     1       4.150   4.855  -1.431  1.00  0.00     0.230 C 
ATOM      3  N   UNL     1       4.745   6.040  -1.675  1.00  0.00    -0.302 N 
ATOM      4  H   UNL     1       5.054   6.633  -0.892  1.00  0.00     0.172 HD
ATOM      5  O   UNL     1       3.787   4.157  -2.353  1.00  0.00    -0.274 OA
BRANCH   3   6
ATOM      6  C   UNL     1       4.941   6.460  -2.981  1.00  0.00     0.190 A 
ATOM      7  C   UNL     1       5.803   8.319  -9.025  1.00  0.00     0.044 C 
ATOM      8  C   UNL     1       5.736   8.147  -7.530  1.00  0.00    -0.049 A 
ATOM      9  C   UNL     1       5.170   7.011  -6.981  1.00  0.00     0.024 A 
ATOM     10  C   UNL     1       6.242   9.128  -6.689  1.00  0.00     0.009 A 
ATOM     11  C   UNL     1       5.117   6.872  -5.617  1.00  0.00     0.057 A 
ATOM     12  C   UNL     1       6.194   8.997  -5.326  1.00  0.00    -0.024 A 
ATOM     13  C   UNL     1       5.622   7.849  -4.730  1.00  0.00     0.087 A 
ATOM     14  S   UNL     1       4.504   5.631  -4.503  1.00  0.00    -0.097 S 
ATOM     15  C   UNL     1       6.756  10.089  -4.452  1.00  0.00     0.047 C 
ATOM     16  N   UNL     1       5.490   7.570  -3.415  1.00  0.00    -0.220 NA
ENDBRANCH   3   6
ENDBRANCH   1   2
BRANCH   1  17
ATOM     17  C   UNL     1       3.258   3.053  -0.012  1.00  0.00     0.004 A 
ATOM     18  C   UNL     1       1.902   2.968   0.000  1.00  0.00     0.049 A 
ATOM     19  C   UNL     1       4.017   1.877  -0.026  1.00  0.00     0.047 A 
ATOM     20  N   UNL     1       1.318   1.741  -0.001  1.00  0.00    -0.199 N 
ATOM     21  C   UNL     1       1.058   4.216   0.015  1.00  0.00     0.067 C 
ATOM     22  N   UNL     1       3.422   0.705  -0.027  1.00  0.00    -0.216 NA
ATOM     23  C   UNL     1       5.521   1.956  -0.040  1.00  0.00     0.067 C 
ATOM     24  C   UNL     1       2.088   0.612  -0.015  1.00  0.00     0.254 A 
ATOM     25  N   UNL     1      -0.016   1.313   0.009  1.00  0.00    -0.126 NA
ATOM     26  N   UNL     1       1.263  -0.430  -0.012  1.00  0.00    -0.174 NA
ATOM     27  C   UNL     1       0.002  -0.004   0.002  1.00  0.00     0.241 A 
BRANCH  27  28
ATOM     28  N   UNL     1      -1.123  -0.824   0.008  1.00  0.00    -0.366 N 
ATOM     29  H   UNL     1      -0.949  -1.839   0.001  1.00  0.00     0.159 HD
ATOM     30  H   UNL     1      -2.083  -0.448   0.019  1.00  0.00     0.159 HD
ENDBRANCH  27  28
ENDBRANCH   1  17
TORSDOF 4
