REMARK SMILES CC1(C)C[C@@H](O)[C@]2(C)CC[C@]3(C)C(=CC[C@@H]4[C@@]5(C=O)CC[C@H](O)[C@](C)(CO)[C@@H]5CC[C@]43C)[C@H]2C1
REMARK SMILES IDX 1 1 2 2 34 3 33 4 13 5 14 6 15 7 16 8 31 9 11 10 10 11 9 12
REMARK SMILES IDX 7 13 5 14 4 15 8 16 12 17 30 18 29 19 28 20 17 21 20 22
REMARK SMILES IDX 21 23 22 24 24 25 25 26 32 27 3 28 6 29 18 31 19 32 26 33
REMARK SMILES IDX 27 34 23 36
REMARK H PARENT 6 30 27 35 23 37
REMARK Flexibility Score: inf
ROOT
ATOM      1  C   UNL     1       2.875  -2.241   1.321  1.00  0.00     0.011 C 
ATOM      2  C   UNL     1       2.111  -2.320  -0.001  1.00  0.00    -0.032 C 
ATOM      3  C   UNL     1       0.976  -1.292   0.006  1.00  0.00     0.015 C 
ATOM      4  C   UNL     1       1.572   0.107   0.161  1.00  0.00     0.024 C 
ATOM      5  C   UNL     1       0.467   1.147   0.155  1.00  0.00    -0.064 C 
ATOM      6  C   UNL     1      -0.768   0.743   0.205  1.00  0.00    -0.027 C 
ATOM      7  C   UNL     1      -1.938   1.681   0.184  1.00  0.00     0.032 C 
ATOM      8  C   UNL     1      -1.498   3.054   0.768  1.00  0.00     0.013 C 
ATOM      9  C   UNL     1      -0.306   3.538  -0.057  1.00  0.00    -0.019 C 
ATOM     10  C   UNL     1       0.873   2.590   0.090  1.00  0.00    -0.006 C 
ATOM     11  C   UNL     1       1.861   2.800  -1.059  1.00  0.00     0.012 C 
ATOM     12  C   UNL     1       3.028   1.817  -0.926  1.00  0.00     0.011 C 
ATOM     13  C   UNL     1       2.497   0.389  -1.027  1.00  0.00     0.000 C 
ATOM     14  C   UNL     1       3.643  -0.620  -1.005  1.00  0.00     0.121 C 
ATOM     15  C   UNL     1       3.067  -2.031  -1.159  1.00  0.00     0.038 C 
ATOM     16  C   UNL     1       1.710   0.233  -2.330  1.00  0.00     0.015 C 
ATOM     17  C   UNL     1       1.602   2.937   1.389  1.00  0.00     0.017 C 
ATOM     18  C   UNL     1       0.103   4.933   0.424  1.00  0.00     0.008 C 
ATOM     19  C   UNL     1      -1.062   5.906   0.234  1.00  0.00     0.006 C 
ATOM     20  C   UNL     1      -2.237   5.426   1.089  1.00  0.00     0.013 C 
ATOM     21  C   UNL     1      -2.665   4.035   0.622  1.00  0.00     0.033 C 
ATOM     22  C   UNL     1      -3.843   3.552   1.471  1.00  0.00     0.018 C 
ATOM     23  C   UNL     1      -5.014   4.524   1.319  1.00  0.00     0.033 C 
ATOM     24  C   UNL     1      -4.585   5.917   1.786  1.00  0.00     0.123 C 
ATOM     25  C   UNL     1      -3.408   6.399   0.936  1.00  0.00     0.020 C 
ATOM     26  C   UNL     1      -2.978   7.791   1.403  1.00  0.00     0.017 C 
ATOM     27  C   UNL     1      -0.712   3.613  -1.530  1.00  0.00     0.012 C 
ATOM     28  C   UNL     1       1.524  -3.723  -0.165  1.00  0.00     0.011 C 
ENDROOT
BRANCH  14  29
ATOM     29  O   UNL     1       4.534  -0.356  -2.091  1.00  0.00    -0.393 OA
ATOM     30  H   UNL     1       4.900   0.559  -2.003  1.00  0.00     0.210 HD
ENDBRANCH  14  29
BRANCH  21  31
ATOM     31  C   UNL     1      -3.084   4.102  -0.825  1.00  0.00     0.231 C 
ATOM     32  O   UNL     1      -3.862   3.291  -1.266  1.00  0.00    -0.303 OA
ENDBRANCH  21  31
BRANCH  25  33
ATOM     33  C   UNL     1      -3.831   6.462  -0.533  1.00  0.00     0.165 C 
BRANCH  33  34
ATOM     34  O   UNL     1      -4.800   7.497  -0.706  1.00  0.00    -0.396 OA
ATOM     35  H   UNL     1      -4.408   8.366  -0.439  1.00  0.00     0.210 HD
ENDBRANCH  33  34
ENDBRANCH  25  33
BRANCH  24  36
ATOM     36  O   UNL     1      -5.679   6.825   1.643  1.00  0.00    -0.392 OA
ATOM     37  H   UNL     1      -6.442   6.513   2.193  1.00  0.00     0.210 HD
ENDBRANCH  24  36
TORSDOF 5
