REMARK SMILES O=C1CS[C@H](c2cn(-c3ccccc3)nc2-c2cc3ccccc3oc2=O)N1Cc1ccco1
REMARK SMILES IDX 5 1 28 2 2 3 1 4 3 5 4 6 6 7 8 8 15 9 7 10 16 11 9 12 12 13
REMARK SMILES IDX 13 14 11 15 14 16 10 17 17 18 26 19 18 20 25 21 27 22 19 23
REMARK SMILES IDX 24 24 20 25 23 26 21 27 22 28 29 29 30 30 34 31 31 32 33 33
REMARK SMILES IDX 32 34
REMARK H PARENT
REMARK Flexibility Score: inf
ROOT
ATOM      1  C   UNL     1      -2.632  -0.234   2.259  1.00  0.00     0.178 C 
ATOM      2  N   UNL     1      -3.440   0.128   1.079  1.00  0.00    -0.318 N 
ATOM      3  C   UNL     1      -4.092   1.284   1.070  1.00  0.00     0.234 C 
ATOM      4  O   UNL     1      -4.774   1.613   0.123  1.00  0.00    -0.274 OA
ATOM      5  C   UNL     1      -3.951   2.181   2.290  1.00  0.00     0.172 C 
ATOM      6  S   UNL     1      -2.504   1.393   3.121  1.00  0.00    -0.122 SA
ENDROOT
BRANCH   1   7
ATOM      7  C   UNL     1      -1.271  -0.736   1.849  1.00  0.00     0.032 A 
ATOM      8  N   UNL     1       0.807  -0.805   1.160  1.00  0.00    -0.240 N 
ATOM      9  N   UNL     1       0.395  -2.119   1.417  1.00  0.00    -0.167 NA
ATOM     10  C   UNL     1      -0.237   0.023   1.428  1.00  0.00     0.122 A 
ATOM     11  C   UNL     1      -0.855  -2.083   1.832  1.00  0.00     0.106 A 
BRANCH   8  12
ATOM     12  C   UNL     1       2.071  -0.413   0.701  1.00  0.00     0.065 A 
ATOM     13  C   UNL     1       4.568   0.360  -0.206  1.00  0.00     0.000 A 
ATOM     14  C   UNL     1       3.635   1.318   0.147  1.00  0.00     0.002 A 
ATOM     15  C   UNL     1       4.256  -0.984  -0.106  1.00  0.00     0.002 A 
ATOM     16  C   UNL     1       2.386   0.935   0.595  1.00  0.00     0.028 A 
ATOM     17  C   UNL     1       3.010  -1.373   0.346  1.00  0.00     0.028 A 
ENDBRANCH   8  12
BRANCH  11  18
ATOM     18  C   UNL     1      -1.679  -3.254   2.215  1.00  0.00     0.089 A 
ATOM     19  C   UNL     1      -1.712  -4.449   1.368  1.00  0.00     0.345 A 
ATOM     20  C   UNL     1      -2.425  -3.233   3.362  1.00  0.00     0.030 A 
ATOM     21  O   UNL     1      -2.451  -5.515   1.711  1.00  0.00    -0.422 OA
ATOM     22  O   UNL     1      -1.057  -4.478   0.342  1.00  0.00    -0.246 OA
ATOM     23  C   UNL     1      -3.220  -4.417   3.693  1.00  0.00     0.018 A 
ATOM     24  C   UNL     1      -3.198  -5.530   2.835  1.00  0.00     0.138 A 
ATOM     25  C   UNL     1      -4.002  -4.447   4.856  1.00  0.00     0.012 A 
ATOM     26  C   UNL     1      -3.956  -6.650   3.156  1.00  0.00     0.048 A 
ATOM     27  C   UNL     1      -4.739  -5.559   5.150  1.00  0.00     0.001 A 
ATOM     28  C   UNL     1      -4.718  -6.659   4.305  1.00  0.00     0.004 A 
ENDBRANCH  11  18
ENDBRANCH   1   7
BRANCH   2  29
ATOM     29  C   UNL     1      -3.528  -0.781  -0.066  1.00  0.00     0.196 C 
BRANCH  29  30
ATOM     30  C   UNL     1      -2.455  -0.434  -1.066  1.00  0.00     0.123 A 
ATOM     31  O   UNL     1      -2.538   0.518  -2.009  1.00  0.00    -0.467 OA
ATOM     32  C   UNL     1      -1.250  -1.024  -1.163  1.00  0.00     0.047 A 
ATOM     33  C   UNL     1      -1.400   0.544  -2.721  1.00  0.00     0.195 A 
ATOM     34  C   UNL     1      -0.571  -0.396  -2.232  1.00  0.00     0.042 A 
ENDBRANCH  29  30
ENDBRANCH   2  29
TORSDOF 5
