REMARK SMILES C=C1[C@@H](C)[C@@H]2[C@@H](Cc3ccccc3)NC(=O)[C@@]23OC(=O)/C=C\[C@H](O)CCC[C@@H](C)C/C=C\[C@H]3[C@H]1O
REMARK SMILES IDX 18 1 17 2 33 3 34 4 5 5 15 6 2 7 3 8 6 9 14 10 16 11 1 12
REMARK SMILES IDX 4 13 32 15 31 16 30 17 28 18 29 19 27 20 35 22 7 24 8 25
REMARK SMILES IDX 13 26 9 27 12 28 10 29 11 30 19 31 20 32 21 33 22 34 23 35
REMARK SMILES IDX 25 36 26 37 24 39
REMARK H PARENT 14 14 35 23 24 40
REMARK Flexibility Score: 70.00
ROOT
ATOM      1  O   UNL     1       1.037  -0.812  -0.108  1.00  0.00    -0.445 OA
ENDROOT
BRANCH   1   2
ATOM      2  C   UNL     1       0.978  -2.214  -0.412  1.00  0.00     0.204 C 
ATOM      3  C   UNL     1       1.140  -3.013   0.853  1.00  0.00     0.099 C 
ATOM      4  C   UNL     1       0.003  -2.873   1.841  1.00  0.00     0.151 C 
ATOM      5  C   UNL     1      -0.307  -2.524  -1.168  1.00  0.00     0.073 C 
ATOM      6  C   UNL     1       2.117  -2.463  -1.375  1.00  0.00     0.265 C 
ATOM      7  C   UNL     1      -1.287  -3.134   1.088  1.00  0.00    -0.045 C 
ATOM      8  C   UNL     1      -1.249  -3.431  -0.380  1.00  0.00     0.024 C 
ATOM      9  C   UNL     1       0.216  -3.373  -2.365  1.00  0.00     0.094 C 
ATOM     10  N   UNL     1       1.657  -3.119  -2.451  1.00  0.00    -0.349 N 
ATOM     11  O   UNL     1       3.267  -2.119  -1.191  1.00  0.00    -0.270 OA
ATOM     12  C   UNL     1      -2.430  -3.112   1.731  1.00  0.00     0.011 C 
ATOM     13  C   UNL     1      -2.666  -3.290  -0.941  1.00  0.00     0.013 C 
ATOM     14  H   UNL     1       2.247  -3.411  -3.244  1.00  0.00     0.163 HD
BRANCH   3  15
ATOM     15  C   UNL     1       2.504  -2.943   1.424  1.00  0.00    -0.020 C 
ATOM     16  C   UNL     1       3.069  -2.052   2.172  1.00  0.00    -0.030 C 
BRANCH  16  17
ATOM     17  C   UNL     1       2.438  -0.798   2.704  1.00  0.00     0.030 C 
BRANCH  17  18
ATOM     18  C   UNL     1       3.537   0.190   3.125  1.00  0.00    -0.011 C 
ATOM     19  C   UNL     1       4.347  -0.406   4.283  1.00  0.00     0.008 C 
BRANCH  18  20
ATOM     20  C   UNL     1       2.901   1.495   3.600  1.00  0.00     0.004 CG0
ATOM     21  G   UNL     1       2.111   2.164   2.478  1.00  0.00     0.000 G0
ENDBRANCH  18  20
ENDBRANCH  17  18
ENDBRANCH  16  17
ENDBRANCH   3  15
BRANCH   4  22
ATOM     22  O   UNL     1      -0.053  -1.572   2.419  1.00  0.00    -0.388 OA
ATOM     23  H   UNL     1      -0.165  -0.913   1.689  1.00  0.00     0.211 HD
ENDBRANCH   4  22
BRANCH   9  24
ATOM     24  C   UNL     1      -0.467  -2.935  -3.665  1.00  0.00     0.060 C 
BRANCH  24  25
ATOM     25  C   UNL     1      -0.009  -3.820  -4.795  1.00  0.00    -0.046 A 
ATOM     26  C   UNL     1      -0.704  -4.978  -5.092  1.00  0.00     0.004 A 
ATOM     27  C   UNL     1       1.102  -3.471  -5.540  1.00  0.00     0.004 A 
ATOM     28  C   UNL     1      -0.284  -5.790  -6.129  1.00  0.00     0.000 A 
ATOM     29  C   UNL     1       1.525  -4.286  -6.573  1.00  0.00     0.000 A 
ATOM     30  C   UNL     1       0.831  -5.444  -6.870  1.00  0.00     0.000 A 
ENDBRANCH  24  25
ENDBRANCH   9  24
ENDBRANCH   1   2
BRANCH   1  31
ATOM     31  C   UNL     1       0.002  -0.004   0.002  1.00  0.00     0.331 C 
ATOM     32  O   UNL     1      -1.104  -0.517   0.144  1.00  0.00    -0.247 OA
BRANCH  31  33
ATOM     33  C   UNL     1      -0.018   1.446   0.010  1.00  0.00     0.092 C 
ATOM     34  C   UNL     1       0.958   2.319   0.005  1.00  0.00     0.012 C 
BRANCH  34  35
ATOM     35  C   UNL     1       2.436   2.083  -0.002  1.00  0.00     0.137 C 
BRANCH  35  36
ATOM     36  C   UNL     1       3.046   2.533   1.327  1.00  0.00     0.036 C 
BRANCH  36  37
ATOM     37  C   UNL     1       2.111   2.164   2.478  1.00  0.00     0.003 CG0
ATOM     38  G   UNL     1       2.901   1.495   3.600  1.00  0.00     0.000 G0
ENDBRANCH  36  37
ENDBRANCH  35  36
BRANCH  35  39
ATOM     39  O   UNL     1       2.771   0.723  -0.248  1.00  0.00    -0.389 OA
ATOM     40  H   UNL     1       2.417   0.160   0.485  1.00  0.00     0.211 HD
ENDBRANCH  35  39
ENDBRANCH  34  35
ENDBRANCH  31  33
ENDBRANCH   1  31
TORSDOF 4
