REMARK SMILES CCOC(=O)C1=C(N)n2c(s/c(=C\c3ccc(C)cc3)c2=O)=C(C(=O)OCC)[C@@H]1c1ccc(C)cc1
REMARK SMILES IDX 23 1 10 2 9 3 21 4 22 5 12 6 13 7 11 8 7 9 6 10 29 11 24 12
REMARK SMILES IDX 25 13 26 14 27 15 28 16 30 17 36 18 31 19 35 20 32 21 33 22
REMARK SMILES IDX 34 23 4 24 5 25 3 26 2 27 1 28 8 29 14 32 20 33 15 34 19 35
REMARK SMILES IDX 16 36 17 37 18 38
REMARK H PARENT 8 30 8 31
REMARK Flexibility Score: inf
ROOT
ATOM      1  C   UNL     1      -2.480   5.059   5.666  1.00  0.00     0.084 C 
ATOM      2  C   UNL     1      -3.836   4.991   5.847  1.00  0.00     0.116 A 
ATOM      3  N   UNL     1      -4.495   3.901   6.378  1.00  0.00    -0.252 N 
ATOM      4  C   UNL     1      -5.836   3.977   6.497  1.00  0.00     0.274 A 
ATOM      5  O   UNL     1      -6.474   3.049   6.957  1.00  0.00    -0.267 OA
ATOM      6  C   UNL     1      -6.507   5.207   6.057  1.00  0.00     0.096 A 
ATOM      7  C   UNL     1      -7.827   5.521   6.074  1.00  0.00     0.033 C 
ATOM      8  S   UNL     1      -5.118   6.177   5.495  1.00  0.00    -0.111 S 
ATOM      9  C   UNL     1      -3.755   2.780   6.764  1.00  0.00     0.123 C 
ATOM     10  C   UNL     1      -2.409   2.690   6.650  1.00  0.00     0.090 C 
ATOM     11  C   UNL     1      -1.642   3.863   6.073  1.00  0.00     0.101 C 
ENDROOT
BRANCH   1  12
ATOM     12  C   UNL     1      -1.883   6.204   5.120  1.00  0.00     0.337 C 
ATOM     13  O   UNL     1      -2.573   7.156   4.798  1.00  0.00    -0.246 OA
BRANCH  12  14
ATOM     14  O   UNL     1      -0.544   6.251   4.949  1.00  0.00    -0.463 OA
BRANCH  14  15
ATOM     15  C   UNL     1      -0.004   7.449   4.387  1.00  0.00     0.230 C 
ATOM     16  C   UNL     1       1.516   7.317   4.271  1.00  0.00     0.049 C 
ENDBRANCH  14  15
ENDBRANCH  12  14
ENDBRANCH   1  12
BRANCH  11  17
ATOM     17  C   UNL     1      -0.887   3.382   4.861  1.00  0.00    -0.035 A 
ATOM     18  C   UNL     1      -1.572   2.846   3.787  1.00  0.00     0.005 A 
ATOM     19  C   UNL     1       0.492   3.477   4.823  1.00  0.00     0.005 A 
ATOM     20  C   UNL     1      -0.880   2.409   2.673  1.00  0.00     0.004 A 
ATOM     21  C   UNL     1       1.185   3.035   3.712  1.00  0.00     0.004 A 
ATOM     22  C   UNL     1       0.499   2.499   2.638  1.00  0.00    -0.051 A 
ATOM     23  C   UNL     1       1.255   2.018   1.426  1.00  0.00     0.044 C 
ENDBRANCH  11  17
BRANCH  10  24
ATOM     24  C   UNL     1      -1.734   1.530   7.060  1.00  0.00     0.338 C 
ATOM     25  O   UNL     1      -2.367   0.552   7.416  1.00  0.00    -0.246 OA
BRANCH  24  26
ATOM     26  O   UNL     1      -0.384   1.498   7.060  1.00  0.00    -0.463 OA
BRANCH  26  27
ATOM     27  C   UNL     1       0.236   0.285   7.490  1.00  0.00     0.230 C 
ATOM     28  C   UNL     1       1.757   0.437   7.422  1.00  0.00     0.049 C 
ENDBRANCH  26  27
ENDBRANCH  24  26
ENDBRANCH  10  24
BRANCH   9  29
ATOM     29  N   UNL     1      -4.431   1.710   7.288  1.00  0.00    -0.384 N 
ATOM     30  H   UNL     1      -5.455   1.723   7.397  1.00  0.00     0.158 HD
ATOM     31  H   UNL     1      -3.899   0.876   7.577  1.00  0.00     0.158 HD
ENDBRANCH   9  29
BRANCH   7  32
ATOM     32  C   UNL     1      -8.262   6.885   5.743  1.00  0.00    -0.024 A 
ATOM     33  C   UNL     1      -9.608   7.145   5.462  1.00  0.00     0.008 A 
ATOM     34  C   UNL     1      -7.334   7.932   5.713  1.00  0.00     0.008 A 
ATOM     35  C   UNL     1     -10.008   8.428   5.152  1.00  0.00     0.004 A 
ATOM     36  C   UNL     1      -7.750   9.207   5.394  1.00  0.00     0.004 A 
ATOM     37  C   UNL     1      -9.083   9.456   5.118  1.00  0.00    -0.051 A 
ATOM     38  C   UNL     1      -9.529  10.855   4.778  1.00  0.00     0.044 C 
ENDBRANCH   7  32
TORSDOF 9
