REMARK SMILES CCOc1cc([C@H]2c3c(-c4cc(Cl)c(C)cc4O)n[nH]c3C(=O)N2CCOC)ccc1O
REMARK SMILES IDX 7 1 8 2 9 3 19 4 20 5 21 6 22 7 23 8 24 9 6 11 4 12 31 13
REMARK SMILES IDX 5 14 30 15 29 16 3 17 2 18 1 19 32 20 25 22 26 23 27 24
REMARK SMILES IDX 28 25 10 26 17 27 11 28 16 29 12 30 14 31 13 32 15 33 18 34
REMARK H PARENT 20 10 32 21 18 35
REMARK Flexibility Score: inf
ROOT
ATOM      1  C   UNL     1       2.335   4.266  -0.078  1.00  0.00     0.151 C 
ATOM      2  C   UNL     1       2.591   4.836  -1.446  1.00  0.00     0.038 A 
ATOM      3  C   UNL     1       2.817   4.587  -2.804  1.00  0.00     0.102 A 
ATOM      4  N   UNL     1       2.960   5.754  -3.400  1.00  0.00    -0.174 NA
ATOM      5  N   UNL     1       2.846   6.715  -2.554  1.00  0.00    -0.272 N 
ATOM      6  C   UNL     1       2.614   6.210  -1.306  1.00  0.00     0.129 A 
ATOM      7  C   UNL     1       2.381   6.539   0.105  1.00  0.00     0.273 C 
ATOM      8  O   UNL     1       2.341   7.668   0.557  1.00  0.00    -0.267 OA
ATOM      9  N   UNL     1       2.218   5.416   0.827  1.00  0.00    -0.324 N 
ATOM     10  H   UNL     1       2.920   7.717  -2.782  1.00  0.00     0.190 HD
ENDROOT
BRANCH   1  11
ATOM     11  C   UNL     1       1.053   3.473  -0.078  1.00  0.00    -0.017 A 
ATOM     12  C   UNL     1      -1.343   3.401  -0.142  1.00  0.00     0.161 A 
ATOM     13  C   UNL     1      -1.300   2.012  -0.072  1.00  0.00     0.157 A 
ATOM     14  C   UNL     1      -0.163   4.128  -0.141  1.00  0.00     0.056 A 
ATOM     15  C   UNL     1      -0.078   1.361  -0.015  1.00  0.00     0.050 A 
ATOM     16  C   UNL     1       1.095   2.093  -0.014  1.00  0.00     0.010 A 
BRANCH  12  17
ATOM     17  O   UNL     1      -2.539   4.044  -0.204  1.00  0.00    -0.490 OA
BRANCH  17  18
ATOM     18  C   UNL     1      -2.513   5.472  -0.141  1.00  0.00     0.226 C 
ATOM     19  C   UNL     1      -3.946   6.007  -0.110  1.00  0.00     0.049 C 
ENDBRANCH  17  18
ENDBRANCH  12  17
BRANCH  13  20
ATOM     20  O   UNL     1      -2.455   1.294  -0.067  1.00  0.00    -0.504 OA
ATOM     21  H   UNL     1      -2.931   1.571  -0.890  1.00  0.00     0.293 HD
ENDBRANCH  13  20
ENDBRANCH   1  11
BRANCH   9  22
ATOM     22  C   UNL     1       1.966   5.352   2.269  1.00  0.00     0.149 C 
BRANCH  22  23
ATOM     23  C   UNL     1       3.300   5.281   3.016  1.00  0.00     0.181 C 
BRANCH  23  24
ATOM     24  O   UNL     1       4.025   6.495   2.813  1.00  0.00    -0.383 OA
ATOM     25  C   UNL     1       5.292   6.533   3.472  1.00  0.00     0.194 C 
ENDBRANCH  23  24
ENDBRANCH  22  23
ENDBRANCH   9  22
BRANCH   3  26
ATOM     26  C   UNL     1       2.883   3.255  -3.454  1.00  0.00     0.046 A 
ATOM     27  C   UNL     1       2.972   3.156  -4.845  1.00  0.00     0.125 A 
ATOM     28  C   UNL     1       2.850   2.097  -2.681  1.00  0.00     0.035 A 
ATOM     29  C   UNL     1       3.040   1.909  -5.444  1.00  0.00     0.051 A 
ATOM     30  C   UNL     1       2.912   0.859  -3.290  1.00  0.00     0.044 A 
ATOM     31  C   UNL     1       3.007   0.765  -4.669  1.00  0.00    -0.029 A 
ATOM     32  Cl  UNL     1       2.871  -0.584  -2.326  1.00  0.00    -0.084 Cl
ATOM     33  C   UNL     1       3.074  -0.589  -5.326  1.00  0.00     0.046 C 
BRANCH  27  34
ATOM     34  O   UNL     1       2.999   4.280  -5.608  1.00  0.00    -0.507 OA
ATOM     35  H   UNL     1       3.765   4.804  -5.262  1.00  0.00     0.293 HD
ENDBRANCH  27  34
ENDBRANCH   3  26
TORSDOF 9
