REMARK SMILES Cc1c(C)n2c3c(=O)n(Cc4cccc5ccccc45)c(=O)n(C)c3nc2n1CCc1ccccc1
REMARK SMILES IDX 1 1 2 2 3 3 5 4 6 5 25 6 26 7 27 8 28 9 23 10 21 11 22 12
REMARK SMILES IDX 9 13 7 14 8 15 24 16 4 17 29 18 30 19 31 20 36 21 32 22
REMARK SMILES IDX 35 23 33 24 34 25 10 26 11 27 20 28 12 29 15 30 19 31 13 32
REMARK SMILES IDX 14 33 16 34 18 35 17 36
REMARK H PARENT
REMARK Flexibility Score: inf
ROOT
ATOM      1  C   UNL     1      -1.561   8.353   2.829  1.00  0.00     0.066 C 
ATOM      2  C   UNL     1      -1.378   6.901   2.470  1.00  0.00     0.037 A 
ATOM      3  C   UNL     1      -1.780   5.862   3.196  1.00  0.00     0.043 A 
ATOM      4  N   UNL     1      -1.425   4.702   2.529  1.00  0.00    -0.274 N 
ATOM      5  C   UNL     1      -1.457   3.316   2.569  1.00  0.00     0.158 A 
ATOM      6  C   UNL     1      -0.823   2.876   1.408  1.00  0.00     0.170 A 
ATOM      7  N   UNL     1      -0.449   3.954   0.724  1.00  0.00    -0.194 NA
ATOM      8  C   UNL     1      -0.798   5.050   1.381  1.00  0.00     0.217 A 
ATOM      9  N   UNL     1      -0.761   6.419   1.331  1.00  0.00    -0.314 N 
ATOM     10  N   UNL     1      -0.716   1.512   1.181  1.00  0.00    -0.279 N 
ATOM     11  C   UNL     1      -1.210   0.639   2.079  1.00  0.00     0.332 A 
ATOM     12  O   UNL     1      -1.105  -0.553   1.867  1.00  0.00    -0.247 OA
ATOM     13  N   UNL     1      -1.819   1.054   3.203  1.00  0.00    -0.254 N 
ATOM     14  C   UNL     1      -1.958   2.368   3.476  1.00  0.00     0.283 A 
ATOM     15  O   UNL     1      -2.512   2.729   4.500  1.00  0.00    -0.267 OA
ATOM     16  C   UNL     1      -0.059   1.021  -0.033  1.00  0.00     0.157 C 
ATOM     17  C   UNL     1      -2.499   5.934   4.518  1.00  0.00     0.067 C 
ENDROOT
BRANCH   9  18
ATOM     18  C   UNL     1      -0.173   7.227   0.261  1.00  0.00     0.130 C 
BRANCH  18  19
ATOM     19  C   UNL     1       1.299   7.499   0.577  1.00  0.00     0.057 C 
BRANCH  19  20
ATOM     20  C   UNL     1       1.905   8.331  -0.524  1.00  0.00    -0.046 A 
ATOM     21  C   UNL     1       1.872   9.710  -0.446  1.00  0.00     0.004 A 
ATOM     22  C   UNL     1       2.497   7.714  -1.610  1.00  0.00     0.004 A 
ATOM     23  C   UNL     1       2.428  10.473  -1.455  1.00  0.00     0.000 A 
ATOM     24  C   UNL     1       3.048   8.477  -2.623  1.00  0.00     0.000 A 
ATOM     25  C   UNL     1       3.016   9.857  -2.544  1.00  0.00     0.000 A 
ENDBRANCH  19  20
ENDBRANCH  18  19
ENDBRANCH   9  18
BRANCH  13  26
ATOM     26  C   UNL     1      -2.340   0.063   4.148  1.00  0.00     0.167 C 
BRANCH  26  27
ATOM     27  C   UNL     1      -1.242  -0.359   5.090  1.00  0.00    -0.020 A 
ATOM     28  C   UNL     1      -1.465  -1.391   6.017  1.00  0.00    -0.013 A 
ATOM     29  C   UNL     1      -0.031   0.261   5.050  1.00  0.00     0.006 A 
ATOM     30  C   UNL     1      -0.418  -1.778   6.891  1.00  0.00    -0.018 A 
ATOM     31  C   UNL     1      -2.700  -2.058   6.084  1.00  0.00     0.009 A 
ATOM     32  C   UNL     1       0.997  -0.116   5.913  1.00  0.00     0.001 A 
ATOM     33  C   UNL     1       0.819  -1.115   6.821  1.00  0.00     0.009 A 
ATOM     34  C   UNL     1      -0.639  -2.814   7.815  1.00  0.00     0.009 A 
ATOM     35  C   UNL     1      -2.878  -3.056   6.992  1.00  0.00     0.001 A 
ATOM     36  C   UNL     1      -1.850  -3.434   7.854  1.00  0.00     0.001 A 
ENDBRANCH  26  27
ENDBRANCH  13  26
TORSDOF 5
