REMARK SMILES CC1(C)OC[C@@H]([C@H]2CC[C@@]3(C)C4=CC[C@@H]5C(C)(C)[C@@H](O)CC[C@@]5(C)[C@@H]4CC[C@@]23C)C[C@@H](O)[C@@H]1O
REMARK SMILES IDX 5 1 6 2 7 3 17 4 16 5 15 6 19 7 18 8 23 9 14 10 21 11 22 12
REMARK SMILES IDX 25 13 24 14 13 15 12 16 26 17 10 18 27 19 28 20 9 21 11 22
REMARK SMILES IDX 29 23 8 24 20 25 30 27 31 28 32 30 4 32 2 33 1 34 3 35 33 36
REMARK SMILES IDX 34 38
REMARK H PARENT 20 26 32 31 34 39
REMARK Flexibility Score: 80.00
ROOT
ATOM      1  C   UNL     1       0.878   0.229   0.950  1.00  0.00     0.165 C 
ENDROOT
BRANCH   1   2
ATOM      2  C   UNL     1       0.234   0.895  -0.178  1.00  0.00     0.021 C 
BRANCH   2   3
ATOM      3  C   UNL     1       1.176   0.856  -1.383  1.00  0.00     0.001 C 
ATOM      4  C   UNL     1       8.258   5.778  -2.504  1.00  0.00     0.014 C 
ATOM      5  C   UNL     1       6.869   6.144  -3.025  1.00  0.00    -0.006 C 
ATOM      6  C   UNL     1       5.857   5.038  -2.824  1.00  0.00     0.007 C 
ATOM      7  C   UNL     1       6.418   7.464  -2.401  1.00  0.00     0.120 C 
ATOM      8  C   UNL     1       7.007   6.399  -4.546  1.00  0.00     0.014 C 
ATOM      9  C   UNL     1       5.286   4.904  -1.419  1.00  0.00    -0.022 C 
ATOM     10  C   UNL     1       6.397   3.675  -3.258  1.00  0.00     0.032 C 
ATOM     11  C   UNL     1       5.965   7.273  -0.958  1.00  0.00     0.033 C 
ATOM     12  C   UNL     1       4.817   6.269  -0.905  1.00  0.00     0.010 C 
ATOM     13  C   UNL     1       4.082   3.970  -1.470  1.00  0.00     0.021 C 
ATOM     14  C   UNL     1       6.314   4.331  -0.445  1.00  0.00     0.012 C 
ATOM     15  C   UNL     1       5.270   2.671  -3.189  1.00  0.00    -0.027 C 
ATOM     16  C   UNL     1       4.237   2.800  -2.405  1.00  0.00    -0.064 C 
ATOM     17  C   UNL     1       3.708   3.461  -0.080  1.00  0.00     0.009 C 
ATOM     18  C   UNL     1       3.115   1.794  -2.452  1.00  0.00    -0.006 C 
ATOM     19  C   UNL     1       2.384   2.697  -0.206  1.00  0.00     0.008 C 
ATOM     20  C   UNL     1       2.577   1.441  -1.048  1.00  0.00    -0.020 C 
ATOM     21  C   UNL     1       1.897   2.384  -3.185  1.00  0.00     0.012 C 
ATOM     22  C   UNL     1       3.539   0.498  -3.146  1.00  0.00     0.017 C 
ATOM     23  C   UNL     1       3.464   0.403  -0.348  1.00  0.00     0.012 C 
ATOM     24  C   UNL     1       0.654   1.763  -2.518  1.00  0.00     0.005 C 
BRANCH   7  25
ATOM     25  O   UNL     1       5.348   8.014  -3.175  1.00  0.00    -0.393 OA
ATOM     26  H   UNL     1       4.588   7.380  -3.188  1.00  0.00     0.210 HD
ENDBRANCH   7  25
ENDBRANCH   2   3
BRANCH   2  27
ATOM     27  C   UNL     1      -1.096   0.207  -0.563  1.00  0.00     0.041 C 
BRANCH  27  28
ATOM     28  C   UNL     1      -2.150   0.671   0.404  1.00  0.00     0.146 CG0
ATOM     29  G   UNL     1      -2.280  -0.200   1.669  1.00  0.00     0.000 G0
BRANCH  28  30
ATOM     30  O   UNL     1      -3.410   0.691  -0.273  1.00  0.00    -0.390 OA
ATOM     31  H   UNL     1      -3.636  -0.218  -0.594  1.00  0.00     0.211 HD
ENDBRANCH  28  30
ENDBRANCH  27  28
ENDBRANCH   2  27
ENDBRANCH   1   2
BRANCH   1  32
ATOM     32  O   UNL     1       0.098   0.244   2.141  1.00  0.00    -0.372 OA
BRANCH  32  33
ATOM     33  C   UNL     1      -0.951  -0.641   2.302  1.00  0.00     0.091 C 
ATOM     34  C   UNL     1      -1.204  -0.755   3.826  1.00  0.00     0.045 C 
ATOM     35  C   UNL     1      -0.596  -2.048   1.820  1.00  0.00     0.045 C 
BRANCH  33  36
ATOM     36  C   UNL     1      -2.280  -0.200   1.669  1.00  0.00     0.174 CG0
ATOM     37  G   UNL     1      -2.150   0.671   0.404  1.00  0.00     0.000 G0
BRANCH  36  38
ATOM     38  O   UNL     1      -3.037   0.525   2.648  1.00  0.00    -0.387 OA
ATOM     39  H   UNL     1      -3.939   0.728   2.295  1.00  0.00     0.211 HD
ENDBRANCH  36  38
ENDBRANCH  33  36
ENDBRANCH  32  33
ENDBRANCH   1  32
TORSDOF 4
