REMARK SMILES NC(=O)c1ccc(CSc2ccc(C(=O)N[C@@H]3CCSc4ccc(F)cc43)cc2)cc1
REMARK SMILES IDX 9 1 8 2 7 3 6 4 5 5 30 6 4 7 31 8 2 9 3 10 1 11 10 14 29 15
REMARK SMILES IDX 11 16 28 17 12 18 13 19 14 20 15 21 16 22 17 24 27 25 18 26
REMARK SMILES IDX 21 27 26 28 19 29 20 30 22 31 24 32 23 33 25 34
REMARK H PARENT 1 12 1 13 16 23
REMARK Flexibility Score: inf
ROOT
ATOM      1  S   UNL     1       6.840  -5.431   5.031  1.00  0.00    -0.121 SA
ENDROOT
BRANCH   1   2
ATOM      2  C   UNL     1       6.492  -4.641   6.627  1.00  0.00     0.110 C 
BRANCH   2   3
ATOM      3  C   UNL     1       7.176  -5.409   7.728  1.00  0.00    -0.038 A 
ATOM      4  C   UNL     1       6.512  -6.443   8.362  1.00  0.00     0.005 A 
ATOM      5  C   UNL     1       7.135  -7.153   9.368  1.00  0.00     0.014 A 
ATOM      6  C   UNL     1       8.465  -5.072   8.104  1.00  0.00     0.005 A 
ATOM      7  C   UNL     1       8.434  -6.819   9.752  1.00  0.00     0.039 A 
ATOM      8  C   UNL     1       9.097  -5.771   9.111  1.00  0.00     0.014 A 
BRANCH   7   9
ATOM      9  C   UNL     1       9.106  -7.572  10.832  1.00  0.00     0.248 C 
ATOM     10  O   UNL     1      10.238  -7.279  11.164  1.00  0.00    -0.270 OA
ATOM     11  N   UNL     1       8.464  -8.584  11.449  1.00  0.00    -0.366 N 
ATOM     12  H   UNL     1       7.505  -8.832  11.167  1.00  0.00     0.159 HD
ATOM     13  H   UNL     1       8.932  -9.109  12.201  1.00  0.00     0.159 HD
ENDBRANCH   7   9
ENDBRANCH   2   3
ENDBRANCH   1   2
BRANCH   1  14
ATOM     14  C   UNL     1       5.982  -4.429   3.863  1.00  0.00     0.008 A 
ATOM     15  C   UNL     1       5.258  -3.321   4.297  1.00  0.00     0.016 A 
ATOM     16  C   UNL     1       6.029  -4.747   2.508  1.00  0.00     0.016 A 
ATOM     17  C   UNL     1       4.594  -2.537   3.389  1.00  0.00     0.015 A 
ATOM     18  C   UNL     1       5.363  -3.969   1.596  1.00  0.00     0.015 A 
ATOM     19  C   UNL     1       4.636  -2.856   2.029  1.00  0.00     0.039 A 
BRANCH  19  20
ATOM     20  C   UNL     1       3.918  -2.017   1.050  1.00  0.00     0.251 C 
ATOM     21  O   UNL     1       3.959  -2.293  -0.133  1.00  0.00    -0.269 OA
ATOM     22  N   UNL     1       3.218  -0.944   1.468  1.00  0.00    -0.345 N 
ATOM     23  H   UNL     1       3.183  -0.711   2.471  1.00  0.00     0.164 HD
BRANCH  22  24
ATOM     24  C   UNL     1       2.505  -0.111   0.497  1.00  0.00     0.114 C 
ATOM     25  C   UNL     1       1.160  -0.722   0.236  1.00  0.00    -0.009 A 
ATOM     26  C   UNL     1       2.439   1.309   1.032  1.00  0.00     0.041 C 
ATOM     27  C   UNL     1       0.002  -0.004   0.002  1.00  0.00     0.013 A 
ATOM     28  C   UNL     1       1.100  -2.113   0.228  1.00  0.00     0.046 A 
ATOM     29  C   UNL     1       1.741   2.203  -0.003  1.00  0.00     0.077 C 
ATOM     30  S   UNL     1      -0.022   1.761   0.012  1.00  0.00    -0.126 SA
ATOM     31  C   UNL     1      -1.196  -0.671  -0.251  1.00  0.00     0.018 A 
ATOM     32  C   UNL     1      -0.087  -2.772  -0.020  1.00  0.00     0.123 A 
ATOM     33  C   UNL     1      -1.242  -2.049  -0.264  1.00  0.00     0.040 A 
ATOM     34  F   UNL     1      -0.122  -4.123  -0.025  1.00  0.00    -0.207 F 
ENDBRANCH  22  24
ENDBRANCH  19  20
ENDBRANCH   1  14
TORSDOF 6
