REMARK SMILES C=CCn1c(CCC2CCCCC2)nnc1SCC(=O)Nc1sc2c(c1C(N)=O)CC[C@H](C)C2
REMARK SMILES IDX 17 1 18 2 19 3 21 4 20 6 22 7 33 8 32 9 34 10 31 11 24 12
REMARK SMILES IDX 30 13 25 14 23 15 26 16 27 17 29 18 28 19 16 22 4 23 15 24
REMARK SMILES IDX 5 25 14 26 3 27 2 28 1 29 6 30 7 31 8 32 13 33 9 34 12 35
REMARK SMILES IDX 10 36 11 37
REMARK H PARENT 21 5 28 20 28 21
REMARK Flexibility Score: inf
ROOT
ATOM      1  S   UNL     1       2.756   1.826  -0.015  1.00  0.00    -0.076 SA
ENDROOT
BRANCH   1   2
ATOM      2  C   UNL     1       3.538   3.459  -0.013  1.00  0.00     0.178 C 
BRANCH   2   3
ATOM      3  C   UNL     1       5.037   3.298  -0.029  1.00  0.00     0.235 C 
ATOM      4  N   UNL     1       5.831   4.387  -0.030  1.00  0.00    -0.316 N 
ATOM      5  H   UNL     1       5.414   5.328  -0.021  1.00  0.00     0.170 HD
ATOM      6  O   UNL     1       5.527   2.189  -0.040  1.00  0.00    -0.274 OA
BRANCH   4   7
ATOM      7  C   UNL     1       7.210   4.239  -0.045  1.00  0.00     0.108 A 
ATOM      8  C   UNL     1      13.551   3.123  -0.019  1.00  0.00     0.008 C 
ATOM      9  C   UNL     1      12.183   3.739   0.283  1.00  0.00    -0.009 C 
ATOM     10  C   UNL     1      11.076   2.742  -0.090  1.00  0.00     0.050 C 
ATOM     11  C   UNL     1      11.999   5.014  -0.544  1.00  0.00     0.008 C 
ATOM     12  C   UNL     1       9.765   3.466  -0.075  1.00  0.00     0.011 A 
ATOM     13  C   UNL     1      10.753   5.766  -0.072  1.00  0.00     0.038 C 
ATOM     14  C   UNL     1       9.572   4.803  -0.065  1.00  0.00    -0.019 A 
ATOM     15  S   UNL     1       8.135   2.774  -0.063  1.00  0.00    -0.122 S 
ATOM     16  C   UNL     1       8.183   5.228  -0.054  1.00  0.00     0.077 A 
BRANCH  16  17
ATOM     17  C   UNL     1       7.823   6.649  -0.050  1.00  0.00     0.251 C 
ATOM     18  O   UNL     1       7.684   7.239   1.006  1.00  0.00    -0.269 OA
ATOM     19  N   UNL     1       7.644   7.303  -1.215  1.00  0.00    -0.365 N 
ATOM     20  H   UNL     1       7.761   6.804  -2.109  1.00  0.00     0.159 HD
ATOM     21  H   UNL     1       7.391   8.301  -1.212  1.00  0.00     0.159 HD
ENDBRANCH  16  17
ENDBRANCH   4   7
ENDBRANCH   2   3
ENDBRANCH   1   2
BRANCH   1  22
ATOM     22  C   UNL     1       1.059   2.300   0.004  1.00  0.00     0.192 A 
ATOM     23  N   UNL     1      -0.018   1.461   0.010  1.00  0.00    -0.302 N 
ATOM     24  N   UNL     1       0.591   3.526   0.015  1.00  0.00    -0.123 NA
ATOM     25  C   UNL     1      -1.119   2.272   0.019  1.00  0.00     0.133 A 
ATOM     26  N   UNL     1      -0.694   3.503   0.028  1.00  0.00    -0.134 NA
BRANCH  23  27
ATOM     27  C   UNL     1       0.002  -0.004   0.002  1.00  0.00     0.153 C 
BRANCH  27  28
ATOM     28  C   UNL     1       0.022  -0.514   1.420  1.00  0.00    -0.013 C 
ATOM     29  C   UNL     1      -0.892  -1.361   1.824  1.00  0.00     0.006 C 
ENDBRANCH  27  28
ENDBRANCH  23  27
BRANCH  25  30
ATOM     30  C   UNL     1      -2.558   1.824   0.022  1.00  0.00     0.078 C 
BRANCH  30  31
ATOM     31  C   UNL     1      -3.039   1.663   1.465  1.00  0.00     0.011 C 
BRANCH  31  32
ATOM     32  C   UNL     1      -4.500   1.209   1.468  1.00  0.00    -0.011 C 
ATOM     33  C   UNL     1      -4.944   0.928   2.905  1.00  0.00     0.003 C 
ATOM     34  C   UNL     1      -5.378   2.309   0.868  1.00  0.00     0.003 C 
ATOM     35  C   UNL     1      -6.405   0.474   2.908  1.00  0.00     0.000 C 
ATOM     36  C   UNL     1      -6.839   1.854   0.871  1.00  0.00     0.000 C 
ATOM     37  C   UNL     1      -7.283   1.574   2.308  1.00  0.00     0.000 C 
ENDBRANCH  31  32
ENDBRANCH  30  31
ENDBRANCH  25  30
ENDBRANCH   1  22
TORSDOF 10
