REMARK SMILES Cc1cccc(-n2c(O)c3ccc(C(=O)Nc4ccccc4C[NH+]4CCCC4)cc3nc2=S)c1C
REMARK SMILES IDX 17 1 18 2 19 3 20 4 21 5 22 6 16 7 14 8 15 9 13 11 7 12
REMARK SMILES IDX 32 13 8 14 31 15 33 16 10 17 30 18 11 19 29 20 12 21 6 22
REMARK SMILES IDX 1 23 2 24 34 25 3 26 35 27 4 28 5 29 9 30 23 32 24 33 28 34
REMARK SMILES IDX 25 35 27 37 26 38
REMARK H PARENT 16 10 9 31 24 36
REMARK Flexibility Score: inf
ROOT
ATOM      1  C   UNL     1       4.843   1.076   0.066  1.00  0.00     0.050 A 
ATOM      2  C   UNL     1       4.899  -0.176   0.664  1.00  0.00     0.026 A 
ATOM      3  C   UNL     1       6.103  -0.847   0.747  1.00  0.00     0.002 A 
ATOM      4  C   UNL     1       7.254  -0.269   0.243  1.00  0.00     0.001 A 
ATOM      5  C   UNL     1       7.203   0.980  -0.348  1.00  0.00     0.012 A 
ATOM      6  C   UNL     1       6.001   1.654  -0.438  1.00  0.00     0.030 A 
ENDROOT
BRANCH   1   7
ATOM      7  N   UNL     1       3.624   1.756  -0.024  1.00  0.00    -0.322 N 
ATOM      8  C   UNL     1       2.466   1.067  -0.013  1.00  0.00     0.255 C 
ATOM      9  O   UNL     1       2.482  -0.148  -0.027  1.00  0.00    -0.269 OA
ATOM     10  H   UNL     1       3.612   2.783  -0.098  1.00  0.00     0.170 HD
BRANCH   8  11
ATOM     11  C   UNL     1       1.175   1.791   0.016  1.00  0.00     0.042 A 
ATOM     12  N   UNL     1      -3.599   3.126   0.088  1.00  0.00    -0.255 N 
ATOM     13  C   UNL     1      -3.549   1.783   0.072  1.00  0.00     0.207 A 
ATOM     14  C   UNL     1      -2.465   3.863   0.094  1.00  0.00     0.207 A 
ATOM     15  N   UNL     1      -2.405   1.117   0.052  1.00  0.00    -0.219 NA
ATOM     16  S   UNL     1      -5.017   0.903   0.078  1.00  0.00    -0.038 S 
ATOM     17  C   UNL     1      -1.228   3.187   0.068  1.00  0.00     0.061 A 
ATOM     18  C   UNL     1      -1.232   1.767   0.047  1.00  0.00     0.080 A 
ATOM     19  C   UNL     1      -0.010   3.883   0.057  1.00  0.00     0.017 A 
ATOM     20  C   UNL     1      -0.013   1.077   0.026  1.00  0.00     0.043 A 
ATOM     21  C   UNL     1       1.164   3.195   0.031  1.00  0.00     0.015 A 
BRANCH  12  22
ATOM     22  C   UNL     1      -4.842   3.770   0.109  1.00  0.00     0.055 A 
ATOM     23  C   UNL     1      -7.383   5.104  -2.350  1.00  0.00     0.044 C 
ATOM     24  C   UNL     1      -6.698   4.740  -1.058  1.00  0.00    -0.046 A 
ATOM     25  C   UNL     1      -5.470   4.109  -1.082  1.00  0.00    -0.024 A 
ATOM     26  C   UNL     1      -7.298   5.044   0.150  1.00  0.00     0.004 A 
ATOM     27  C   UNL     1      -4.815   3.784  -2.400  1.00  0.00     0.047 C 
ATOM     28  C   UNL     1      -6.673   4.713   1.338  1.00  0.00     0.002 A 
ATOM     29  C   UNL     1      -5.447   4.076   1.321  1.00  0.00     0.027 A 
ENDBRANCH  12  22
BRANCH  14  30
ATOM     30  O   UNL     1      -2.517   5.207   0.110  1.00  0.00    -0.494 OA
ATOM     31  H   UNL     1      -3.058   5.427   0.909  1.00  0.00     0.295 HD
ENDBRANCH  14  30
ENDBRANCH   8  11
ENDBRANCH   1   7
BRANCH   6  32
ATOM     32  C   UNL     1       5.946   3.015  -1.082  1.00  0.00     0.301 C 
BRANCH  32  33
ATOM     33  N   UNL     1       5.928   4.050  -0.039  1.00  0.00    -0.331 N 
ATOM     34  C   UNL     1       6.114   5.396  -0.624  1.00  0.00     0.262 C 
ATOM     35  C   UNL     1       7.051   3.864   0.915  1.00  0.00     0.262 C 
ATOM     36  H   UNL     1       5.016   3.968   0.433  1.00  0.00     0.348 HD
ATOM     37  C   UNL     1       6.915   6.225   0.397  1.00  0.00     0.067 C 
ATOM     38  C   UNL     1       7.193   5.260   1.572  1.00  0.00     0.067 C 
ENDBRANCH  32  33
ENDBRANCH   6  32
TORSDOF 6
