REMARK SMILES O=C(Cc1ccccc1)N[C@@H]1c2ccccc2C2(CC[NH+](Cc3ccc4c(c3)CCO4)CC2)[C@H]1O
REMARK SMILES IDX 11 1 12 2 13 3 14 4 15 5 16 6 17 7 18 8 34 9 19 10 20 11
REMARK SMILES IDX 32 12 33 13 21 14 10 16 2 17 1 18 3 20 4 21 7 22 8 23 6 24
REMARK SMILES IDX 9 25 5 26 35 27 22 29 23 30 28 31 24 32 27 33 25 34 26 35
REMARK SMILES IDX 29 36 31 37 30 38
REMARK H PARENT 21 15 10 19 35 28
REMARK Flexibility Score: inf
ROOT
ATOM      1  C   UNL     1      -0.981   7.574   4.115  1.00  0.00     0.142 C 
ATOM      2  C   UNL     1      -0.309   7.117   5.392  1.00  0.00    -0.019 A 
ATOM      3  C   UNL     1      -0.326   7.669   6.662  1.00  0.00     0.006 A 
ATOM      4  C   UNL     1       0.373   7.069   7.691  1.00  0.00     0.000 A 
ATOM      5  C   UNL     1       1.094   5.914   7.453  1.00  0.00     0.000 A 
ATOM      6  C   UNL     1       1.113   5.362   6.187  1.00  0.00     0.005 A 
ATOM      7  C   UNL     1       0.412   5.960   5.153  1.00  0.00    -0.033 A 
ATOM      8  C   UNL     1       0.270   5.566   3.703  1.00  0.00     0.035 C 
ATOM      9  C   UNL     1      -0.949   6.346   3.179  1.00  0.00     0.152 C 
ATOM     10  C   UNL     1       1.519   5.963   2.920  1.00  0.00     0.076 C 
ATOM     11  C   UNL     1       1.361   5.526   1.460  1.00  0.00     0.263 C 
ATOM     12  C   UNL     1      -0.087   3.689   2.100  1.00  0.00     0.263 C 
ATOM     13  C   UNL     1       0.022   4.065   3.580  1.00  0.00     0.076 C 
ATOM     14  N   UNL     1       1.171   4.061   1.418  1.00  0.00    -0.331 N 
ATOM     15  H   UNL     1       1.959   3.609   1.904  1.00  0.00     0.348 HD
ENDROOT
BRANCH   1  16
ATOM     16  N   UNL     1      -0.238   8.687   3.519  1.00  0.00    -0.346 N 
ATOM     17  C   UNL     1      -0.491   9.952   3.908  1.00  0.00     0.224 C 
ATOM     18  O   UNL     1      -1.335  10.169   4.752  1.00  0.00    -0.275 OA
ATOM     19  H   UNL     1       0.479   8.502   2.803  1.00  0.00     0.164 HD
BRANCH  17  20
ATOM     20  C   UNL     1       0.274  11.096   3.295  1.00  0.00     0.135 C 
BRANCH  20  21
ATOM     21  C   UNL     1      -0.197  12.395   3.898  1.00  0.00    -0.039 A 
ATOM     22  C   UNL     1      -1.059  14.777   5.005  1.00  0.00     0.000 A 
ATOM     23  C   UNL     1      -1.673  14.279   3.871  1.00  0.00     0.000 A 
ATOM     24  C   UNL     1      -0.012  14.085   5.585  1.00  0.00     0.000 A 
ATOM     25  C   UNL     1      -1.240  13.090   3.316  1.00  0.00     0.004 A 
ATOM     26  C   UNL     1       0.419  12.893   5.032  1.00  0.00     0.004 A 
ENDBRANCH  20  21
ENDBRANCH  17  20
ENDBRANCH   1  16
BRANCH   9  27
ATOM     27  O   UNL     1      -2.143   5.572   3.313  1.00  0.00    -0.390 OA
ATOM     28  H   UNL     1      -2.921   6.141   3.086  1.00  0.00     0.211 HD
ENDBRANCH   9  27
BRANCH  14  29
ATOM     29  C   UNL     1       1.141   3.597   0.015  1.00  0.00     0.299 C 
BRANCH  29  30
ATOM     30  C   UNL     1       1.167   2.090   0.002  1.00  0.00     0.007 A 
ATOM     31  C   UNL     1       2.376   1.417  -0.017  1.00  0.00     0.017 A 
ATOM     32  C   UNL     1      -0.017   1.375   0.010  1.00  0.00     0.013 A 
ATOM     33  C   UNL     1       2.397   0.040  -0.029  1.00  0.00    -0.002 A 
ATOM     34  C   UNL     1       0.002  -0.004   0.002  1.00  0.00     0.047 A 
ATOM     35  C   UNL     1       1.215  -0.689  -0.014  1.00  0.00     0.122 A 
ATOM     36  C   UNL     1       3.536  -0.961  -0.068  1.00  0.00     0.081 C 
ATOM     37  O   UNL     1       1.462  -2.028  -0.007  1.00  0.00    -0.493 OA
ATOM     38  C   UNL     1       2.803  -2.264  -0.466  1.00  0.00     0.234 C 
ENDBRANCH  29  30
ENDBRANCH  14  29
TORSDOF 6
