REMARK SMILES N#Cc1ccsc1NC(=O)COC(=O)CSc1nc2cc(Cl)ccc2n1Cc1ccccc1
REMARK SMILES IDX 13 1 14 2 15 3 16 4 17 5 26 6 25 7 18 8 19 9 24 10 20 11
REMARK SMILES IDX 23 12 21 13 22 14 27 15 28 16 31 17 32 18 30 19 33 20 29 21
REMARK SMILES IDX 12 22 11 23 9 24 10 25 8 26 7 28 6 29 3 30 5 31 4 32 2 33
REMARK SMILES IDX 1 34
REMARK H PARENT 8 27
REMARK Flexibility Score: inf
ROOT
ATOM      1  C   UNL     1      -5.344   7.870   0.097  1.00  0.00     0.316 C 
ATOM      2  O   UNL     1      -4.959   9.015   0.100  1.00  0.00    -0.251 OA
ENDROOT
BRANCH   1   3
ATOM      3  C   UNL     1      -4.346   6.740   0.081  1.00  0.00     0.200 C 
BRANCH   3   4
ATOM      4  S   UNL     1      -2.668   7.417   0.068  1.00  0.00    -0.076 SA
BRANCH   4   5
ATOM      5  C   UNL     1      -1.735   5.923   0.050  1.00  0.00     0.169 A 
ATOM      6  N   UNL     1      -0.371   5.849   0.037  1.00  0.00    -0.314 N 
ATOM      7  C   UNL     1      -0.033   4.505   0.027  1.00  0.00     0.069 A 
ATOM      8  N   UNL     1      -2.246   4.716   0.049  1.00  0.00    -0.222 NA
ATOM      9  C   UNL     1      -1.246   3.797   0.034  1.00  0.00     0.091 A 
ATOM     10  C   UNL     1       1.171   3.817   0.011  1.00  0.00     0.030 A 
ATOM     11  C   UNL     1      -1.227   2.400   0.021  1.00  0.00     0.051 A 
ATOM     12  C   UNL     1       1.174   2.437   0.004  1.00  0.00     0.023 A 
ATOM     13  C   UNL     1      -0.021   1.732   0.012  1.00  0.00     0.043 A 
ATOM     14  Cl  UNL     1       0.002  -0.004   0.002  1.00  0.00    -0.084 Cl
BRANCH   6  15
ATOM     15  C   UNL     1       0.561   6.979   0.034  1.00  0.00     0.160 C 
BRANCH  15  16
ATOM     16  C   UNL     1       0.867   7.375  -1.387  1.00  0.00    -0.028 A 
ATOM     17  C   UNL     1       1.429   8.100  -3.995  1.00  0.00     0.000 A 
ATOM     18  C   UNL     1       2.212   7.158  -3.356  1.00  0.00     0.000 A 
ATOM     19  C   UNL     1       0.364   8.680  -3.331  1.00  0.00     0.000 A 
ATOM     20  C   UNL     1       1.934   6.798  -2.051  1.00  0.00     0.005 A 
ATOM     21  C   UNL     1       0.083   8.317  -2.027  1.00  0.00     0.005 A 
ENDBRANCH  15  16
ENDBRANCH   6  15
ENDBRANCH   4   5
ENDBRANCH   3   4
ENDBRANCH   1   3
BRANCH   1  22
ATOM     22  O   UNL     1      -6.659   7.604   0.108  1.00  0.00    -0.455 OA
BRANCH  22  23
ATOM     23  C   UNL     1      -7.562   8.741   0.124  1.00  0.00     0.333 C 
BRANCH  23  24
ATOM     24  C   UNL     1      -8.987   8.251   0.135  1.00  0.00     0.263 C 
ATOM     25  O   UNL     1      -9.219   7.061   0.130  1.00  0.00    -0.271 OA
ATOM     26  N   UNL     1     -10.004   9.136   0.150  1.00  0.00    -0.314 N 
ATOM     27  H   UNL     1      -9.806  10.147   0.154  1.00  0.00     0.170 HD
BRANCH  26  28
ATOM     28  C   UNL     1     -11.316   8.684   0.160  1.00  0.00     0.113 A 
ATOM     29  S   UNL     1     -11.892   7.051   0.157  1.00  0.00    -0.125 S 
ATOM     30  C   UNL     1     -12.486   9.433   0.181  1.00  0.00     0.087 A 
ATOM     31  C   UNL     1     -13.647   7.355   0.176  1.00  0.00     0.068 A 
ATOM     32  C   UNL     1     -13.728   8.699   0.185  1.00  0.00     0.033 A 
BRANCH  30  33
ATOM     33  C   UNL     1     -12.460  10.865   0.196  1.00  0.00     0.102 C 
ATOM     34  N   UNL     1     -12.440  12.001   0.208  1.00  0.00    -0.192 NA
ENDBRANCH  30  33
ENDBRANCH  26  28
ENDBRANCH  23  24
ENDBRANCH  22  23
ENDBRANCH   1  22
TORSDOF 10
