REMARK SMILES O=C(NCc1ccc2c(c1)OCO2)[C@@H](Sc1nnc(NCc2ccccc2)s1)c1ccccc1
REMARK SMILES IDX 15 1 16 2 19 3 28 4 18 5 17 6 20 7 21 9 22 10 25 11 26 12
REMARK SMILES IDX 24 13 27 14 23 15 14 16 29 17 34 18 30 19 33 20 31 21 32 22
REMARK SMILES IDX 2 23 1 24 3 25 4 27 5 28 10 29 6 30 9 31 7 32 8 33 11 34
REMARK SMILES IDX 13 35 12 36
REMARK H PARENT 20 8 3 26
REMARK Flexibility Score: inf
ROOT
ATOM      1  S   UNL     1      10.014  -1.236   0.967  1.00  0.00    -0.075 SA
ENDROOT
BRANCH   1   2
ATOM      2  C   UNL     1      11.001  -1.659  -0.430  1.00  0.00     0.177 A 
ATOM      3  C   UNL     1      12.849  -2.162  -2.317  1.00  0.00     0.206 A 
ATOM      4  S   UNL     1      12.767  -1.512  -0.654  1.00  0.00    -0.069 S 
ATOM      5  N   UNL     1      11.580  -2.426  -2.555  1.00  0.00    -0.119 NA
ATOM      6  N   UNL     1      10.634  -2.175  -1.588  1.00  0.00    -0.130 NA
BRANCH   3   7
ATOM      7  N   UNL     1      13.956  -2.341  -3.139  1.00  0.00    -0.356 N 
ATOM      8  H   UNL     1      14.895  -2.082  -2.802  1.00  0.00     0.163 HD
BRANCH   7   9
ATOM      9  C   UNL     1      13.787  -2.897  -4.483  1.00  0.00     0.151 C 
BRANCH   9  10
ATOM     10  C   UNL     1      15.130  -2.988  -5.161  1.00  0.00    -0.029 A 
ATOM     11  C   UNL     1      17.593  -3.154  -6.406  1.00  0.00     0.000 A 
ATOM     12  C   UNL     1      16.830  -2.008  -6.534  1.00  0.00     0.000 A 
ATOM     13  C   UNL     1      17.124  -4.216  -5.656  1.00  0.00     0.000 A 
ATOM     14  C   UNL     1      15.596  -1.927  -5.916  1.00  0.00     0.005 A 
ATOM     15  C   UNL     1      15.893  -4.133  -5.034  1.00  0.00     0.005 A 
ENDBRANCH   9  10
ENDBRANCH   7   9
ENDBRANCH   3   7
ENDBRANCH   1   2
BRANCH   1  16
ATOM     16  C   UNL     1       8.326  -1.665   0.457  1.00  0.00     0.173 C 
BRANCH  16  17
ATOM     17  C   UNL     1       8.225  -3.155   0.255  1.00  0.00    -0.025 A 
ATOM     18  C   UNL     1       7.873  -3.662  -0.981  1.00  0.00     0.005 A 
ATOM     19  C   UNL     1       8.491  -4.014   1.305  1.00  0.00     0.005 A 
ATOM     20  C   UNL     1       7.781  -5.029  -1.166  1.00  0.00     0.000 A 
ATOM     21  C   UNL     1       8.394  -5.380   1.121  1.00  0.00     0.000 A 
ATOM     22  C   UNL     1       8.041  -5.888  -0.115  1.00  0.00     0.000 A 
ENDBRANCH  16  17
BRANCH  16  23
ATOM     23  C   UNL     1       7.355  -1.236   1.526  1.00  0.00     0.238 C 
ATOM     24  O   UNL     1       7.746  -1.037   2.657  1.00  0.00    -0.273 OA
ATOM     25  N   UNL     1       6.051  -1.073   1.226  1.00  0.00    -0.351 N 
ATOM     26  H   UNL     1       5.719  -1.241   0.266  1.00  0.00     0.163 HD
BRANCH  25  27
ATOM     27  C   UNL     1       5.107  -0.655   2.265  1.00  0.00     0.151 C 
BRANCH  27  28
ATOM     28  C   UNL     1       3.725  -0.548   1.674  1.00  0.00    -0.025 A 
ATOM     29  C   UNL     1       3.298   0.650   1.131  1.00  0.00     0.056 A 
ATOM     30  C   UNL     1       2.885  -1.646   1.677  1.00  0.00     0.009 A 
ATOM     31  C   UNL     1       2.028   0.751   0.586  1.00  0.00     0.166 A 
ATOM     32  C   UNL     1       1.617  -1.553   1.135  1.00  0.00     0.051 A 
ATOM     33  C   UNL     1       1.183  -0.356   0.589  1.00  0.00     0.165 A 
ATOM     34  O   UNL     1       1.376   1.797  -0.001  1.00  0.00    -0.454 OA
ATOM     35  O   UNL     1       0.002  -0.004   0.002  1.00  0.00    -0.454 OA
ATOM     36  C   UNL     1      -0.018   1.436   0.010  1.00  0.00     0.468 C 
ENDBRANCH  27  28
ENDBRANCH  25  27
ENDBRANCH  16  23
ENDBRANCH   1  16
TORSDOF 9
