REMARK SMILES O=C(Cc1ccccc1)N[C@@H]1c2ccccc2C2(CC[NH+](Cc3cnn(-c4ccccc4)c3)CC2)[C@H]1O
REMARK SMILES IDX 11 1 12 2 13 3 14 4 15 5 16 6 17 7 18 8 36 9 19 10 20 11
REMARK SMILES IDX 34 12 35 13 21 14 10 16 2 17 1 18 3 20 4 21 7 22 8 23 6 24
REMARK SMILES IDX 9 25 5 26 37 27 22 29 23 30 33 31 24 32 26 33 25 34 27 35
REMARK SMILES IDX 32 36 28 37 31 38 29 39 30 40
REMARK H PARENT 21 15 10 19 37 28
REMARK Flexibility Score: inf
ROOT
ATOM      1  C   UNL     1      -5.744   2.869   4.088  1.00  0.00     0.142 C 
ATOM      2  C   UNL     1      -4.988   3.129   5.374  1.00  0.00    -0.019 A 
ATOM      3  C   UNL     1      -5.454   3.430   6.643  1.00  0.00     0.006 A 
ATOM      4  C   UNL     1      -4.566   3.630   7.681  1.00  0.00     0.000 A 
ATOM      5  C   UNL     1      -3.206   3.529   7.454  1.00  0.00     0.000 A 
ATOM      6  C   UNL     1      -2.739   3.229   6.189  1.00  0.00     0.005 A 
ATOM      7  C   UNL     1      -3.627   3.028   5.146  1.00  0.00    -0.033 A 
ATOM      8  C   UNL     1      -3.381   2.694   3.695  1.00  0.00     0.035 C 
ATOM      9  C   UNL     1      -4.727   2.177   3.154  1.00  0.00     0.152 C 
ATOM     10  C   UNL     1      -2.956   3.943   2.926  1.00  0.00     0.076 C 
ATOM     11  C   UNL     1      -2.685   3.571   1.466  1.00  0.00     0.263 C 
ATOM     12  C   UNL     1      -2.066   1.311   2.089  1.00  0.00     0.263 C 
ATOM     13  C   UNL     1      -2.317   1.607   3.571  1.00  0.00     0.076 C 
ATOM     14  N   UNL     1      -1.615   2.551   1.423  1.00  0.00    -0.331 N 
ATOM     15  H   UNL     1      -0.789   2.915   1.919  1.00  0.00     0.348 HD
ENDROOT
BRANCH   1  16
ATOM     16  N   UNL     1      -6.196   4.132   3.500  1.00  0.00    -0.346 N 
ATOM     17  C   UNL     1      -7.369   4.673   3.884  1.00  0.00     0.224 C 
ATOM     18  O   UNL     1      -8.051   4.113   4.717  1.00  0.00    -0.275 OA
ATOM     19  H   UNL     1      -5.617   4.608   2.793  1.00  0.00     0.164 HD
BRANCH  17  20
ATOM     20  C   UNL     1      -7.834   5.972   3.280  1.00  0.00     0.135 C 
BRANCH  20  21
ATOM     21  C   UNL     1      -9.164   6.356   3.875  1.00  0.00    -0.039 A 
ATOM     22  C   UNL     1     -11.604   7.060   4.968  1.00  0.00     0.000 A 
ATOM     23  C   UNL     1     -11.557   6.281   3.827  1.00  0.00     0.000 A 
ATOM     24  C   UNL     1     -10.432   7.489   5.561  1.00  0.00     0.000 A 
ATOM     25  C   UNL     1     -10.337   5.932   3.278  1.00  0.00     0.004 A 
ATOM     26  C   UNL     1      -9.212   7.137   5.015  1.00  0.00     0.004 A 
ENDBRANCH  20  21
ENDBRANCH  17  20
ENDBRANCH   1  16
BRANCH   9  27
ATOM     27  O   UNL     1      -4.811   0.756   3.275  1.00  0.00    -0.390 OA
ATOM     28  H   UNL     1      -5.728   0.467   3.037  1.00  0.00     0.211 HD
ENDBRANCH   9  27
BRANCH  14  29
ATOM     29  C   UNL     1      -1.248   2.265   0.021  1.00  0.00     0.302 C 
BRANCH  29  30
ATOM     30  C   UNL     1      -0.017   1.395   0.010  1.00  0.00     0.045 A 
ATOM     31  C   UNL     1       1.265   1.829  -0.000  1.00  0.00     0.124 A 
ATOM     32  C   UNL     1       0.002  -0.004   0.002  1.00  0.00     0.145 A 
ATOM     33  N   UNL     1       2.068   0.741  -0.014  1.00  0.00    -0.240 N 
ATOM     34  N   UNL     1       1.250  -0.397  -0.012  1.00  0.00    -0.176 NA
BRANCH  33  35
ATOM     35  C   UNL     1       3.469   0.750  -0.028  1.00  0.00     0.065 A 
ATOM     36  C   UNL     1       4.173  -0.447  -0.041  1.00  0.00     0.028 A 
ATOM     37  C   UNL     1       4.157   1.956  -0.034  1.00  0.00     0.028 A 
ATOM     38  C   UNL     1       5.554  -0.435  -0.055  1.00  0.00     0.002 A 
ATOM     39  C   UNL     1       5.538   1.962  -0.042  1.00  0.00     0.002 A 
ATOM     40  C   UNL     1       6.236   0.768  -0.055  1.00  0.00     0.000 A 
ENDBRANCH  33  35
ENDBRANCH  29  30
ENDBRANCH  14  29
TORSDOF 7
