REMARK SMILES O=C(Cc1ccccc1)Nc1ccccc1C(=O)OCC(=O)N1CC=C(c2c[nH]c3ccccc23)CC1
REMARK SMILES IDX 17 1 18 2 16 3 11 4 12 5 15 6 13 7 14 8 10 9 2 10 1 11 3 13
REMARK SMILES IDX 4 14 7 15 8 16 6 17 9 18 5 19 19 20 20 21 21 22 22 23 23 24
REMARK SMILES IDX 24 25 37 26 25 27 36 28 26 29 27 30 35 31 28 32 30 33 34 34
REMARK SMILES IDX 29 35 31 36 33 37 32 39
REMARK H PARENT 10 12 29 38
REMARK Flexibility Score: inf
ROOT
ATOM      1  C   UNL     1      -3.146   0.416   5.230  1.00  0.00     0.340 C 
ATOM      2  O   UNL     1      -3.300   1.578   5.550  1.00  0.00    -0.246 OA
ENDROOT
BRANCH   1   3
ATOM      3  C   UNL     1      -3.686  -0.660   6.079  1.00  0.00     0.083 A 
ATOM      4  C   UNL     1      -4.287  -0.354   7.310  1.00  0.00     0.055 A 
ATOM      5  C   UNL     1      -4.793  -1.377   8.101  1.00  0.00     0.027 A 
ATOM      6  C   UNL     1      -3.608  -1.991   5.662  1.00  0.00     0.018 A 
ATOM      7  C   UNL     1      -4.703  -2.687   7.678  1.00  0.00     0.002 A 
ATOM      8  C   UNL     1      -4.110  -2.993   6.463  1.00  0.00     0.001 A 
BRANCH   4   9
ATOM      9  N   UNL     1      -4.377   0.969   7.735  1.00  0.00    -0.325 N 
ATOM     10  C   UNL     1      -4.267   1.265   9.045  1.00  0.00     0.228 C 
ATOM     11  O   UNL     1      -3.994   0.394   9.843  1.00  0.00    -0.274 OA
ATOM     12  H   UNL     1      -4.528   1.722   7.048  1.00  0.00     0.169 HD
BRANCH  10  13
ATOM     13  C   UNL     1      -4.482   2.680   9.519  1.00  0.00     0.135 C 
BRANCH  13  14
ATOM     14  C   UNL     1      -4.303   2.741  11.014  1.00  0.00    -0.039 A 
ATOM     15  C   UNL     1      -3.973   2.855  13.756  1.00  0.00     0.000 A 
ATOM     16  C   UNL     1      -5.221   2.599  13.220  1.00  0.00     0.000 A 
ATOM     17  C   UNL     1      -2.890   3.055  12.921  1.00  0.00     0.000 A 
ATOM     18  C   UNL     1      -5.387   2.548  11.849  1.00  0.00     0.004 A 
ATOM     19  C   UNL     1      -3.054   2.998  11.550  1.00  0.00     0.004 A 
ENDBRANCH  13  14
ENDBRANCH  10  13
ENDBRANCH   4   9
ENDBRANCH   1   3
BRANCH   1  20
ATOM     20  O   UNL     1      -2.482   0.112   4.097  1.00  0.00    -0.452 OA
BRANCH  20  21
ATOM     21  C   UNL     1      -1.978   1.223   3.310  1.00  0.00     0.333 C 
BRANCH  21  22
ATOM     22  C   UNL     1      -1.269   0.693   2.090  1.00  0.00     0.260 C 
ATOM     23  O   UNL     1      -1.196  -0.503   1.903  1.00  0.00    -0.271 OA
BRANCH  22  24
ATOM     24  N   UNL     1      -0.716   1.548   1.207  1.00  0.00    -0.336 N 
ATOM     25  C   UNL     1      -0.788   3.003   1.404  1.00  0.00     0.147 C 
ATOM     26  C   UNL     1      -0.017   1.063   0.005  1.00  0.00     0.124 C 
ATOM     27  C   UNL     1      -1.121   3.663   0.095  1.00  0.00    -0.001 C 
ATOM     28  C   UNL     1      -0.770   1.581  -1.222  1.00  0.00     0.057 C 
ATOM     29  C   UNL     1      -1.103   3.034  -1.057  1.00  0.00    -0.039 C 
BRANCH  29  30
ATOM     30  C   UNL     1      -1.432   3.808  -2.270  1.00  0.00     0.003 A 
ATOM     31  C   UNL     1      -2.771   4.252  -2.694  1.00  0.00     0.007 A 
ATOM     32  C   UNL     1      -0.559   4.254  -3.209  1.00  0.00     0.091 A 
ATOM     33  C   UNL     1      -2.585   4.949  -3.900  1.00  0.00     0.046 A 
ATOM     34  C   UNL     1      -4.051   4.112  -2.159  1.00  0.00     0.011 A 
ATOM     35  N   UNL     1      -1.236   4.928  -4.184  1.00  0.00    -0.361 N 
ATOM     36  C   UNL     1      -3.687   5.494  -4.550  1.00  0.00     0.027 A 
ATOM     37  C   UNL     1      -5.129   4.660  -2.819  1.00  0.00     0.001 A 
ATOM     38  H   UNL     1      -0.802   5.359  -5.012  1.00  0.00     0.166 HD
ATOM     39  C   UNL     1      -4.946   5.348  -4.009  1.00  0.00     0.002 A 
ENDBRANCH  29  30
ENDBRANCH  22  24
ENDBRANCH  21  22
ENDBRANCH  20  21
ENDBRANCH   1  20
TORSDOF 9
