REMARK SMILES Oc1ccc(-c2ccnc3cc(Cl)ccc23)cc1C[NH+]1CCC(O)(c2cccc(C(F)(F)F)c2)CC1
REMARK SMILES IDX 23 1 22 2 21 3 36 4 35 5 20 6 25 8 27 9 28 10 26 11 29 12
REMARK SMILES IDX 34 13 30 14 31 15 32 16 33 17 24 18 19 20 18 21 2 22 17 23
REMARK SMILES IDX 3 24 5 25 4 26 1 27 6 29 16 30 7 31 10 32 15 33 8 34 9 35
REMARK SMILES IDX 11 36 14 37 12 38 13 39
REMARK H PARENT 20 7 24 19 1 28
REMARK Flexibility Score: inf
ROOT
ATOM      1  C   UNL     1      -0.764   3.110   1.262  1.00  0.00     0.100 C 
ATOM      2  C   UNL     1      -0.729   1.579   1.267  1.00  0.00     0.102 C 
ATOM      3  C   UNL     1      -0.013   1.086   0.008  1.00  0.00     0.265 C 
ATOM      4  C   UNL     1      -0.729   3.040  -1.234  1.00  0.00     0.265 C 
ATOM      5  C   UNL     1      -1.466   3.591  -0.011  1.00  0.00     0.102 C 
ATOM      6  N   UNL     1      -0.751   1.562  -1.181  1.00  0.00    -0.331 N 
ATOM      7  H   UNL     1      -1.729   1.245  -1.115  1.00  0.00     0.348 HD
ENDROOT
BRANCH   1   8
ATOM      8  C   UNL     1      -1.520   3.602   2.470  1.00  0.00    -0.015 A 
ATOM      9  C   UNL     1      -3.579   4.248   3.506  1.00  0.00     0.001 A 
ATOM     10  C   UNL     1      -2.905   4.505   4.685  1.00  0.00     0.013 A 
ATOM     11  C   UNL     1      -2.885   3.801   2.397  1.00  0.00     0.007 A 
ATOM     12  C   UNL     1      -1.538   4.310   4.757  1.00  0.00     0.056 A 
ATOM     13  C   UNL     1      -0.845   3.859   3.649  1.00  0.00     0.019 A 
BRANCH  12  14
ATOM     14  C   UNL     1      -0.803   4.591   6.042  1.00  0.00     0.416 C 
ATOM     15  F   UNL     1      -0.379   5.924   6.055  1.00  0.00    -0.166 F 
ATOM     16  F   UNL     1      -1.656   4.362   7.127  1.00  0.00    -0.166 F 
ATOM     17  F   UNL     1       0.309   3.747   6.137  1.00  0.00    -0.166 F 
ENDBRANCH  12  14
ENDBRANCH   1   8
BRANCH   1  18
ATOM     18  O   UNL     1       0.570   3.619   1.293  1.00  0.00    -0.385 OA
ATOM     19  H   UNL     1       1.024   3.306   2.115  1.00  0.00     0.211 HD
ENDBRANCH   1  18
BRANCH   6  20
ATOM     20  C   UNL     1      -0.145   1.005  -2.408  1.00  0.00     0.302 C 
BRANCH  20  21
ATOM     21  C   UNL     1      -0.728   1.705  -3.608  1.00  0.00     0.049 A 
ATOM     22  C   UNL     1      -2.026   1.423  -4.014  1.00  0.00     0.124 A 
ATOM     23  C   UNL     1       0.026   2.629  -4.299  1.00  0.00     0.022 A 
ATOM     24  C   UNL     1      -2.567   2.066  -5.120  1.00  0.00     0.047 A 
ATOM     25  C   UNL     1      -0.512   3.274  -5.413  1.00  0.00    -0.017 A 
ATOM     26  C   UNL     1      -1.817   2.988  -5.818  1.00  0.00     0.012 A 
BRANCH  22  27
ATOM     27  O   UNL     1      -2.768   0.516  -3.328  1.00  0.00    -0.507 OA
ATOM     28  H   UNL     1      -2.776   0.846  -2.395  1.00  0.00     0.293 HD
ENDBRANCH  22  27
BRANCH  25  29
ATOM     29  C   UNL     1       0.296   4.264  -6.160  1.00  0.00    -0.007 A 
ATOM     30  C   UNL     1       0.420   4.194  -7.571  1.00  0.00     0.008 A 
ATOM     31  C   UNL     1       0.955   5.296  -5.503  1.00  0.00     0.029 A 
ATOM     32  C   UNL     1       1.205   5.165  -8.238  1.00  0.00     0.072 A 
ATOM     33  C   UNL     1      -0.218   3.187  -8.309  1.00  0.00     0.012 A 
ATOM     34  C   UNL     1       1.709   6.205  -6.233  1.00  0.00     0.112 A 
ATOM     35  N   UNL     1       1.814   6.127  -7.539  1.00  0.00    -0.256 NA
ATOM     36  C   UNL     1       1.329   5.098  -9.637  1.00  0.00     0.049 A 
ATOM     37  C   UNL     1      -0.075   3.152  -9.664  1.00  0.00     0.021 A 
ATOM     38  C   UNL     1       0.697   4.106 -10.325  1.00  0.00     0.043 A 
ATOM     39  Cl  UNL     1       0.855   4.029 -12.052  1.00  0.00    -0.084 Cl
ENDBRANCH  25  29
ENDBRANCH  20  21
ENDBRANCH   6  20
TORSDOF 7
