REMARK SMILES CCc1ccc([C@H](NC(=C(F)C(=O)OC)c2c([O-])[nH]c(=S)[nH]c2=O)c2cccc(F)c2)cc1
REMARK SMILES IDX 8 1 7 3 6 4 3 5 33 6 4 7 32 8 5 9 2 10 1 11 25 12 31 13
REMARK SMILES IDX 26 14 29 15 27 16 28 17 30 18 9 19 10 20 11 21 16 22 17 23
REMARK SMILES IDX 23 24 19 25 18 26 22 27 24 28 20 29 21 32 12 33 13 34 14 35
REMARK SMILES IDX 15 36
REMARK H PARENT 8 2 19 30 22 31
REMARK Flexibility Score: inf
ROOT
ATOM      1  N   UNL     1       3.346   1.773  -0.986  1.00  0.00    -0.371 N 
ATOM      2  H   UNL     1       3.550   2.774  -0.856  1.00  0.00     0.161 HD
ENDROOT
BRANCH   1   3
ATOM      3  C   UNL     1       2.326   1.120  -0.160  1.00  0.00     0.140 C 
BRANCH   3   4
ATOM      4  C   UNL     1       2.771   1.120   1.280  1.00  0.00    -0.021 A 
ATOM      5  C   UNL     1       3.586   1.119   3.921  1.00  0.00    -0.048 A 
ATOM      6  C   UNL     1       3.807   2.231   3.130  1.00  0.00     0.004 A 
ATOM      7  C   UNL     1       2.957   0.008   3.392  1.00  0.00     0.004 A 
ATOM      8  C   UNL     1       3.404   2.229   1.808  1.00  0.00     0.006 A 
ATOM      9  C   UNL     1       2.549   0.008   2.071  1.00  0.00     0.006 A 
BRANCH   5  10
ATOM     10  C   UNL     1       4.031   1.119   5.361  1.00  0.00     0.032 C 
ATOM     11  C   UNL     1       5.461   0.583   5.453  1.00  0.00     0.009 C 
ENDBRANCH   5  10
ENDBRANCH   3   4
BRANCH   3  12
ATOM     12  C   UNL     1       1.024   1.869  -0.284  1.00  0.00    -0.018 A 
ATOM     13  C   UNL     1      -0.167   1.174  -0.363  1.00  0.00     0.045 A 
ATOM     14  C   UNL     1       1.023   3.251  -0.319  1.00  0.00     0.006 A 
ATOM     15  C   UNL     1      -1.363   1.862  -0.483  1.00  0.00     0.123 A 
ATOM     16  C   UNL     1      -0.171   3.939  -0.432  1.00  0.00     0.003 A 
ATOM     17  C   UNL     1      -1.364   3.246  -0.512  1.00  0.00     0.039 A 
ATOM     18  F   UNL     1      -2.528   1.184  -0.566  1.00  0.00    -0.207 F 
ENDBRANCH   3  12
ENDBRANCH   1   3
BRANCH   1  19
ATOM     19  C   UNL     1       4.001   1.081  -1.891  1.00  0.00     0.093 C 
ATOM     20  C   UNL     1       3.628  -0.308  -2.160  1.00  0.00     0.231 C 
ATOM     21  F   UNL     1       4.290  -1.315  -1.550  1.00  0.00    -0.197 F 
BRANCH  19  22
ATOM     22  C   UNL     1       5.112   1.705  -2.637  1.00  0.00     0.075 A 
ATOM     23  C   UNL     1       4.876   2.380  -3.856  1.00  0.00    -0.023 A 
ATOM     24  C   UNL     1       6.419   1.637  -2.158  1.00  0.00     0.260 A 
ATOM     25  N   UNL     1       5.889   2.936  -4.502  1.00  0.00    -0.345 N 
ATOM     26  O   UNL     1       3.623   2.462  -4.357  1.00  0.00    -0.860 OA
ATOM     27  N   UNL     1       7.413   2.228  -2.879  1.00  0.00    -0.299 N 
ATOM     28  O   UNL     1       6.695   0.999  -1.003  1.00  0.00    -0.269 OA
ATOM     29  C   UNL     1       7.132   2.863  -4.031  1.00  0.00     0.176 A 
ATOM     30  H   UNL     1       5.713   3.434  -5.386  1.00  0.00     0.168 HD
ATOM     31  H   UNL     1       8.385   2.188  -2.540  1.00  0.00     0.172 HD
ATOM     32  S   UNL     1       8.403   3.594  -4.913  1.00  0.00    -0.040 S 
ENDBRANCH  19  22
BRANCH  20  33
ATOM     33  C   UNL     1       2.622  -0.584  -3.020  1.00  0.00     0.369 C 
ATOM     34  O   UNL     1       1.959   0.424  -3.631  1.00  0.00    -0.243 OA
BRANCH  33  35
ATOM     35  O   UNL     1       2.278  -1.868  -3.269  1.00  0.00    -0.464 OA
ATOM     36  C   UNL     1       1.205  -2.085  -4.188  1.00  0.00     0.282 C 
ENDBRANCH  33  35
ENDBRANCH  20  33
ENDBRANCH   1  19
TORSDOF 8
