REMARK SMILES CC1(C)[C@@H]2CC[C@@]1(C)/C(=N\NC(=O)CSc1nc(CC3CCCC3)n[n-]1)C2
REMARK SMILES IDX 15 1 14 2 12 3 11 4 13 6 10 7 1 8 2 9 7 10 4 11 3 12 6 13
REMARK SMILES IDX 9 14 8 15 27 16 5 17 16 18 17 19 26 20 18 21 25 22 19 23
REMARK SMILES IDX 20 24 24 25 21 26 23 27 22 28
REMARK H PARENT 11 5
REMARK Flexibility Score: inf
ROOT
ATOM      1  S   UNL     1      -0.363   3.351  -2.640  1.00  0.00    -0.124 SA
ENDROOT
BRANCH   1   2
ATOM      2  C   UNL     1      -0.779   1.876  -1.677  1.00  0.00     0.176 C 
BRANCH   2   3
ATOM      3  C   UNL     1       0.408   0.948  -1.642  1.00  0.00     0.250 C 
ATOM      4  N   UNL     1       0.329  -0.221  -0.977  1.00  0.00    -0.246 N 
ATOM      5  H   UNL     1      -0.541  -0.479  -0.490  1.00  0.00     0.193 HD
ATOM      6  O   UNL     1       1.432   1.252  -2.217  1.00  0.00    -0.272 OA
BRANCH   4   7
ATOM      7  N   UNL     1       1.430  -1.087  -0.950  1.00  0.00    -0.182 NA
ATOM      8  C   UNL     1      -0.684  -5.364   0.397  1.00  0.00     0.012 C 
ATOM      9  C   UNL     1       0.341  -4.419  -0.234  1.00  0.00    -0.022 C 
ATOM     10  C   UNL     1       0.040  -2.916   0.100  1.00  0.00     0.013 C 
ATOM     11  C   UNL     1       1.724  -4.471   0.506  1.00  0.00     0.001 C 
ATOM     12  C   UNL     1       0.484  -4.657  -1.738  1.00  0.00     0.012 C 
ATOM     13  C   UNL     1       0.197  -2.926   1.651  1.00  0.00     0.014 C 
ATOM     14  C   UNL     1       1.322  -2.244  -0.413  1.00  0.00     0.045 C 
ATOM     15  C   UNL     1      -1.274  -2.341  -0.433  1.00  0.00     0.018 C 
ATOM     16  C   UNL     1       2.434  -3.250  -0.155  1.00  0.00     0.058 C 
ATOM     17  C   UNL     1       1.312  -3.963   1.922  1.00  0.00     0.005 C 
ENDBRANCH   4   7
ENDBRANCH   2   3
ENDBRANCH   1   2
BRANCH   1  18
ATOM     18  C   UNL     1      -1.883   4.234  -2.519  1.00  0.00    -0.006 A 
ATOM     19  N   UNL     1      -2.161   5.452  -3.070  1.00  0.00    -0.417 NA
ATOM     20  N   UNL     1      -2.964   3.845  -1.883  1.00  0.00    -0.347 NA
ATOM     21  C   UNL     1      -3.451   5.734  -2.715  1.00  0.00     0.027 A 
ATOM     22  N   UNL     1      -3.882   4.738  -1.995  1.00  0.00    -0.267 NA
BRANCH  21  23
ATOM     23  C   UNL     1      -4.231   6.969  -3.088  1.00  0.00     0.055 C 
BRANCH  23  24
ATOM     24  C   UNL     1      -5.529   6.561  -3.786  1.00  0.00    -0.006 C 
ATOM     25  C   UNL     1      -6.386   7.806  -4.077  1.00  0.00     0.004 C 
ATOM     26  C   UNL     1      -5.215   5.913  -5.151  1.00  0.00     0.004 C 
ATOM     27  C   UNL     1      -6.562   7.872  -5.608  1.00  0.00     0.000 C 
ATOM     28  C   UNL     1      -6.352   6.411  -6.078  1.00  0.00     0.000 C 
ENDBRANCH  23  24
ENDBRANCH  21  23
ENDBRANCH   1  18
TORSDOF 6
