REMARK SMILES Cc1ccc2[nH]c(C(=O)O[C@H](C)C(=O)N3CC(=O)Nc4ccccc43)cc2c1
REMARK SMILES IDX 11 1 12 2 10 3 8 4 9 5 7 6 1 7 2 8 28 9 3 10 27 11 4 12 5 13
REMARK SMILES IDX 26 14 6 15 13 17 14 18 15 19 25 20 16 21 20 22 24 23 17 24
REMARK SMILES IDX 19 25 21 26 23 27 18 28 22 30
REMARK H PARENT 6 16 19 29
REMARK Flexibility Score: inf
ROOT
ATOM      1  C   UNL     1      -3.114  -4.803   0.014  1.00  0.00     0.263 C 
ATOM      2  C   UNL     1      -3.253  -5.748  -1.181  1.00  0.00     0.064 C 
ENDROOT
BRANCH   1   3
ATOM      3  O   UNL     1      -2.969  -3.439  -0.462  1.00  0.00    -0.448 OA
BRANCH   3   4
ATOM      4  C   UNL     1      -1.715  -3.001  -0.694  1.00  0.00     0.355 C 
ATOM      5  O   UNL     1      -0.768  -3.739  -0.503  1.00  0.00    -0.244 OA
BRANCH   4   6
ATOM      6  C   UNL     1      -1.493  -1.631  -1.176  1.00  0.00     0.126 A 
ATOM      7  C   UNL     1       0.751   3.596  -3.108  1.00  0.00     0.044 C 
ATOM      8  C   UNL     1      -0.170   2.486  -2.669  1.00  0.00    -0.050 A 
ATOM      9  C   UNL     1       0.352   1.284  -2.293  1.00  0.00     0.013 A 
ATOM     10  C   UNL     1      -1.543   2.699  -2.651  1.00  0.00     0.005 A 
ATOM     11  C   UNL     1      -0.502   0.251  -1.884  1.00  0.00     0.001 A 
ATOM     12  C   UNL     1      -2.403   1.700  -2.254  1.00  0.00     0.027 A 
ATOM     13  C   UNL     1      -1.894   0.463  -1.865  1.00  0.00     0.046 A 
ATOM     14  C   UNL     1      -0.281  -1.077  -1.445  1.00  0.00     0.044 A 
ATOM     15  N   UNL     1      -2.482  -0.700  -1.429  1.00  0.00    -0.349 N 
ATOM     16  H   UNL     1      -3.494  -0.853  -1.311  1.00  0.00     0.167 HD
ENDBRANCH   4   6
ENDBRANCH   3   4
ENDBRANCH   1   3
BRANCH   1  17
ATOM     17  C   UNL     1      -4.342  -4.905   0.881  1.00  0.00     0.268 C 
ATOM     18  O   UNL     1      -5.151  -4.002   0.895  1.00  0.00    -0.270 OA
BRANCH  17  19
ATOM     19  N   UNL     1      -4.540  -6.000   1.642  1.00  0.00    -0.298 N 
ATOM     20  C   UNL     1      -5.719  -6.161   2.386  1.00  0.00     0.068 A 
ATOM     21  C   UNL     1      -3.525  -7.061   1.725  1.00  0.00     0.226 C 
ATOM     22  C   UNL     1      -6.183  -7.457   2.632  1.00  0.00     0.065 A 
ATOM     23  C   UNL     1      -6.416  -5.067   2.867  1.00  0.00     0.028 A 
ATOM     24  C   UNL     1      -4.211  -8.402   1.674  1.00  0.00     0.244 C 
ATOM     25  N   UNL     1      -5.466  -8.553   2.137  1.00  0.00    -0.323 N 
ATOM     26  C   UNL     1      -7.344  -7.642   3.364  1.00  0.00     0.028 A 
ATOM     27  C   UNL     1      -7.573  -5.258   3.601  1.00  0.00     0.002 A 
ATOM     28  O   UNL     1      -3.626  -9.357   1.210  1.00  0.00    -0.273 OA
ATOM     29  H   UNL     1      -5.904  -9.485   2.127  1.00  0.00     0.170 HD
ATOM     30  C   UNL     1      -8.032  -6.538   3.854  1.00  0.00     0.002 A 
ENDBRANCH  17  19
ENDBRANCH   1  17
TORSDOF 5
