REMARK SMILES C[C@]1(C(=O)N[C@H]2CC[C@@H](C)CC2)Cn2c(cc3sccc32)C(=O)N1Cc1cccnc1
REMARK SMILES IDX 2 1 13 2 14 3 21 4 20 5 19 6 18 7 17 8 16 9 15 10 22 11
REMARK SMILES IDX 23 12 24 13 1 14 3 15 5 16 4 18 6 19 10 20 9 21 8 22 11 23
REMARK SMILES IDX 7 24 12 25 25 26 26 27 31 28 27 29 30 30 28 31 29 32
REMARK H PARENT 5 17
REMARK Flexibility Score: inf
ROOT
ATOM      1  C   UNL     1      -1.405   3.218  -0.396  1.00  0.00     0.137 C 
ATOM      2  C   UNL     1      -0.500   4.412  -0.092  1.00  0.00     0.161 C 
ATOM      3  N   UNL     1       0.882   3.944   0.042  1.00  0.00    -0.333 N 
ATOM      4  C   UNL     1       2.058   4.626  -0.212  1.00  0.00     0.060 A 
ATOM      5  C   UNL     1       2.472   5.886  -0.668  1.00  0.00     0.038 A 
ATOM      6  C   UNL     1       3.786   6.172  -0.775  1.00  0.00     0.068 A 
ATOM      7  S   UNL     1       4.560   4.658  -0.233  1.00  0.00    -0.142 S 
ATOM      8  C   UNL     1       3.088   3.728   0.105  1.00  0.00     0.053 A 
ATOM      9  C   UNL     1       2.540   2.526   0.537  1.00  0.00     0.053 A 
ATOM     10  C   UNL     1       1.184   2.662   0.488  1.00  0.00     0.109 A 
ATOM     11  C   UNL     1       0.116   1.710   0.816  1.00  0.00     0.271 C 
ATOM     12  O   UNL     1       0.348   0.648   1.364  1.00  0.00    -0.267 OA
ATOM     13  N   UNL     1      -1.141   2.075   0.469  1.00  0.00    -0.317 N 
ATOM     14  C   UNL     1      -1.188   2.791  -1.849  1.00  0.00     0.048 C 
ENDROOT
BRANCH   1  15
ATOM     15  C   UNL     1      -2.841   3.639  -0.224  1.00  0.00     0.247 C 
ATOM     16  N   UNL     1      -3.147   4.679   0.578  1.00  0.00    -0.351 N 
ATOM     17  H   UNL     1      -2.409   5.138   1.130  1.00  0.00     0.163 HD
ATOM     18  O   UNL     1      -3.722   3.043  -0.806  1.00  0.00    -0.272 OA
BRANCH  16  19
ATOM     19  C   UNL     1      -4.530   5.155   0.665  1.00  0.00     0.082 C 
ATOM     20  C   UNL     1      -3.113   9.242   0.808  1.00  0.00     0.007 C 
ATOM     21  C   UNL     1      -4.067   8.045   0.790  1.00  0.00    -0.014 C 
ATOM     22  C   UNL     1      -3.878   7.261  -0.510  1.00  0.00     0.005 C 
ATOM     23  C   UNL     1      -3.765   7.135   1.982  1.00  0.00     0.005 C 
ATOM     24  C   UNL     1      -4.831   6.065  -0.528  1.00  0.00     0.025 C 
ATOM     25  C   UNL     1      -4.719   5.939   1.965  1.00  0.00     0.025 C 
ENDBRANCH  16  19
ENDBRANCH   1  15
BRANCH  13  26
ATOM     26  C   UNL     1      -2.272   1.300   0.984  1.00  0.00     0.158 C 
BRANCH  26  27
ATOM     27  C   UNL     1      -2.622   1.779   2.369  1.00  0.00    -0.010 A 
ATOM     28  C   UNL     1      -1.984   1.249   3.474  1.00  0.00     0.116 A 
ATOM     29  C   UNL     1      -3.591   2.754   2.551  1.00  0.00     0.009 A 
ATOM     30  N   UNL     1      -2.280   1.668   4.689  1.00  0.00    -0.264 NA
ATOM     31  C   UNL     1      -3.879   3.165   3.843  1.00  0.00     0.020 A 
ATOM     32  C   UNL     1      -3.196   2.593   4.900  1.00  0.00     0.111 A 
ENDBRANCH  26  27
ENDBRANCH  13  26
TORSDOF 4
