REMARK SMILES COc1ccccc1-c1ccc(C(=O)NCCC2=CCCCC2)c(N2CCC([N@H+]3CCC[C@@H](CO)C3)CC2)n1
REMARK SMILES IDX 9 1 10 2 11 3 12 4 24 5 39 6 8 7 3 8 4 9 7 10 5 11 6 12 2 13
REMARK SMILES IDX 1 14 25 15 38 16 26 17 37 18 27 19 28 20 29 21 36 22 30 23
REMARK SMILES IDX 33 25 31 26 32 27 34 28 35 29 13 31 14 32 15 33 16 35 17 36
REMARK SMILES IDX 18 37 23 38 19 39 22 40 20 41 21 42
REMARK H PARENT 29 24 35 30 15 34
REMARK Flexibility Score: inf
ROOT
ATOM      1  C   UNL     1      -2.044   2.502   3.469  1.00  0.00     0.076 A 
ATOM      2  C   UNL     1      -2.639   3.041   4.611  1.00  0.00     0.030 A 
ATOM      3  C   UNL     1      -3.120   2.194   5.589  1.00  0.00     0.020 A 
ATOM      4  C   UNL     1      -2.991   0.811   5.397  1.00  0.00     0.082 A 
ATOM      5  C   UNL     1      -2.381   0.340   4.221  1.00  0.00     0.142 A 
ATOM      6  N   UNL     1      -1.939   1.188   3.308  1.00  0.00    -0.230 NA
ENDROOT
BRANCH   1   7
ATOM      7  C   UNL     1      -1.528   3.409   2.419  1.00  0.00     0.042 A 
ATOM      8  C   UNL     1      -0.929   2.884   1.268  1.00  0.00     0.128 A 
ATOM      9  C   UNL     1      -0.443   3.741   0.293  1.00  0.00     0.047 A 
ATOM     10  C   UNL     1      -1.636   4.791   2.571  1.00  0.00     0.014 A 
ATOM     11  C   UNL     1      -0.561   5.108   0.453  1.00  0.00     0.004 A 
ATOM     12  C   UNL     1      -1.153   5.631   1.590  1.00  0.00     0.001 A 
BRANCH   8  13
ATOM     13  O   UNL     1      -0.818   1.540   1.111  1.00  0.00    -0.496 OA
ATOM     14  C   UNL     1      -0.195   1.076  -0.089  1.00  0.00     0.278 C 
ENDBRANCH   8  13
ENDBRANCH   1   7
BRANCH   5  15
ATOM     15  N   UNL     1      -2.246  -1.021   4.016  1.00  0.00    -0.355 N 
ATOM     16  C   UNL     1      -0.967  -1.331   3.364  1.00  0.00     0.124 C 
ATOM     17  C   UNL     1      -3.378  -1.551   3.245  1.00  0.00     0.124 C 
ATOM     18  C   UNL     1      -0.788  -2.849   3.285  1.00  0.00     0.086 C 
ATOM     19  C   UNL     1      -3.271  -3.075   3.162  1.00  0.00     0.086 C 
ATOM     20  C   UNL     1      -1.948  -3.454   2.489  1.00  0.00     0.187 C 
BRANCH  20  21
ATOM     21  N   UNL     1      -1.812  -4.916   2.458  1.00  0.00    -0.332 N 
ATOM     22  C   UNL     1      -2.910  -5.531   1.701  1.00  0.00     0.268 C 
ATOM     23  C   UNL     1      -1.731  -5.466   3.817  1.00  0.00     0.262 C 
ATOM     24  H   UNL     1      -0.932  -5.143   1.974  1.00  0.00     0.348 HD
ATOM     25  C   UNL     1      -2.659  -7.034   1.566  1.00  0.00     0.070 C 
ATOM     26  C   UNL     1      -1.445  -6.968   3.745  1.00  0.00     0.062 C 
ATOM     27  C   UNL     1      -2.564  -7.658   2.961  1.00  0.00     0.017 C 
BRANCH  25  28
ATOM     28  C   UNL     1      -3.814  -7.678   0.795  1.00  0.00     0.165 C 
BRANCH  28  29
ATOM     29  O   UNL     1      -3.524  -9.058   0.568  1.00  0.00    -0.396 OA
ATOM     30  H   UNL     1      -3.410  -9.520   1.436  1.00  0.00     0.210 HD
ENDBRANCH  28  29
ENDBRANCH  25  28
ENDBRANCH  20  21
ENDBRANCH   5  15
BRANCH   4  31
ATOM     31  C   UNL     1      -3.489  -0.133   6.411  1.00  0.00     0.255 C 
ATOM     32  O   UNL     1      -3.460  -1.330   6.194  1.00  0.00    -0.269 OA
ATOM     33  N   UNL     1      -3.978   0.328   7.580  1.00  0.00    -0.352 N 
ATOM     34  H   UNL     1      -4.003   1.341   7.763  1.00  0.00     0.163 HD
BRANCH  33  35
ATOM     35  C   UNL     1      -4.473  -0.611   8.588  1.00  0.00     0.120 C 
BRANCH  35  36
ATOM     36  C   UNL     1      -4.968   0.166   9.810  1.00  0.00     0.052 C 
BRANCH  36  37
ATOM     37  C   UNL     1      -5.477  -0.801  10.848  1.00  0.00    -0.072 C 
ATOM     38  C   UNL     1      -6.898  -1.269  10.736  1.00  0.00     0.031 C 
ATOM     39  C   UNL     1      -4.663  -1.171  11.784  1.00  0.00    -0.028 C 
ATOM     40  C   UNL     1      -7.104  -2.531  11.579  1.00  0.00     0.005 C 
ATOM     41  C   UNL     1      -5.022  -2.133  12.879  1.00  0.00     0.027 C 
ATOM     42  C   UNL     1      -6.543  -2.269  12.983  1.00  0.00     0.004 C 
ENDBRANCH  36  37
ENDBRANCH  35  36
ENDBRANCH  33  35
ENDBRANCH   4  31
TORSDOF 10
