REMARK SMILES O=C1/C(=N/[N-]c2nnc3c(n2)[nH]c2ccccc23)c2cc(Br)ccc2N1Cc1ccccc1
REMARK SMILES IDX 26 1 25 2 24 3 23 4 21 5 20 6 19 7 3 8 4 9 2 10 1 11 22 12
REMARK SMILES IDX 27 13 28 14 31 15 32 16 30 17 33 18 29 19 5 20 6 21 7 22
REMARK SMILES IDX 11 23 8 24 10 25 9 26 12 27 18 28 13 29 17 31 14 32 16 33
REMARK SMILES IDX 15 34
REMARK H PARENT 12 30
REMARK Flexibility Score: inf
ROOT
ATOM      1  N   UNL     1       8.165  10.019  -0.319  1.00  0.00    -0.302 N 
ATOM      2  C   UNL     1       7.037  10.830  -0.247  1.00  0.00     0.054 A 
ATOM      3  C   UNL     1       6.889  12.212  -0.281  1.00  0.00     0.028 A 
ATOM      4  C   UNL     1       5.633  12.777  -0.190  1.00  0.00     0.018 A 
ATOM      5  C   UNL     1       4.508  11.978  -0.065  1.00  0.00     0.018 A 
ATOM      6  C   UNL     1       4.636  10.603  -0.030  1.00  0.00     0.028 A 
ATOM      7  C   UNL     1       5.897  10.025  -0.121  1.00  0.00     0.031 A 
ATOM      8  C   UNL     1       6.374   8.623  -0.115  1.00  0.00     0.144 C 
ATOM      9  N   UNL     1       5.649   7.533  -0.014  1.00  0.00    -0.215 NA
ATOM     10  C   UNL     1       7.839   8.717  -0.241  1.00  0.00     0.278 C 
ATOM     11  O   UNL     1       8.617   7.782  -0.272  1.00  0.00    -0.267 OA
ATOM     12  Br  UNL     1       2.795  12.771   0.058  1.00  0.00    -0.051 Br
ENDROOT
BRANCH   1  13
ATOM     13  C   UNL     1       9.534  10.520  -0.456  1.00  0.00     0.161 C 
BRANCH  13  14
ATOM     14  C   UNL     1      10.128  10.741   0.912  1.00  0.00    -0.028 A 
ATOM     15  C   UNL     1      11.218  11.145   3.420  1.00  0.00     0.000 A 
ATOM     16  C   UNL     1      10.534  12.168   2.791  1.00  0.00     0.000 A 
ATOM     17  C   UNL     1      11.357   9.919   2.795  1.00  0.00     0.000 A 
ATOM     18  C   UNL     1       9.993  11.967   1.534  1.00  0.00     0.005 A 
ATOM     19  C   UNL     1      10.812   9.717   1.541  1.00  0.00     0.005 A 
ENDBRANCH  13  14
ENDBRANCH   1  13
BRANCH   9  20
ATOM     20  N   UNL     1       4.383   7.619   0.217  1.00  0.00    -0.272 NA
BRANCH  20  21
ATOM     21  C   UNL     1       3.595   6.478   0.199  1.00  0.00     0.066 A 
ATOM     22  N   UNL     1       4.157   5.302  -0.057  1.00  0.00    -0.272 NA
ATOM     23  N   UNL     1       2.295   6.581   0.437  1.00  0.00    -0.339 NA
ATOM     24  N   UNL     1       3.466   4.214  -0.085  1.00  0.00    -0.219 NA
ATOM     25  C   UNL     1       1.541   5.487   0.420  1.00  0.00     0.087 A 
ATOM     26  C   UNL     1       2.162   4.250   0.146  1.00  0.00     0.106 A 
ATOM     27  N   UNL     1       0.201   5.265   0.622  1.00  0.00    -0.351 N 
ATOM     28  C   UNL     1       1.098   3.233   0.192  1.00  0.00     0.027 A 
ATOM     29  C   UNL     1      -0.091   3.918   0.490  1.00  0.00     0.048 A 
ATOM     30  H   UNL     1      -0.490   5.998   0.840  1.00  0.00     0.167 HD
ATOM     31  C   UNL     1       1.079   1.853   0.008  1.00  0.00     0.012 A 
ATOM     32  C   UNL     1      -1.280   3.203   0.598  1.00  0.00     0.027 A 
ATOM     33  C   UNL     1      -0.108   1.162   0.120  1.00  0.00     0.001 A 
ATOM     34  C   UNL     1      -1.284   1.838   0.409  1.00  0.00     0.002 A 
ENDBRANCH  20  21
ENDBRANCH   9  20
TORSDOF 4
