REMARK SMILES CC(C)[C@@H](NS(=O)(=O)c1ccc2ccccc2c1)C(=O)NNC(=S)NCCc1ccccc1
REMARK SMILES IDX 22 1 21 3 19 4 20 5 4 7 2 8 1 9 3 10 5 11 6 13 7 14 8 15
REMARK SMILES IDX 9 16 18 17 10 18 17 19 11 20 12 21 16 22 13 23 15 24 14 25
REMARK SMILES IDX 23 26 24 27 25 28 26 30 27 31 28 32 33 33 29 34 32 35 30 36
REMARK SMILES IDX 31 37
REMARK H PARENT 22 2 21 6 5 12 25 29
REMARK Flexibility Score: inf
ROOT
ATOM      1  N   UNL     1      -0.916   2.062  -3.512  1.00  0.00    -0.274 N 
ATOM      2  H   UNL     1      -0.484   2.026  -4.447  1.00  0.00     0.190 HD
ENDROOT
BRANCH   1   3
ATOM      3  N   UNL     1      -2.155   2.692  -3.336  1.00  0.00    -0.267 N 
ATOM      4  C   UNL     1      -2.783   3.250  -4.390  1.00  0.00     0.256 C 
ATOM      5  O   UNL     1      -2.236   3.287  -5.472  1.00  0.00    -0.271 OA
ATOM      6  H   UNL     1      -2.586   2.728  -2.401  1.00  0.00     0.191 HD
BRANCH   4   7
ATOM      7  C   UNL     1      -4.164   3.829  -4.223  1.00  0.00     0.163 C 
BRANCH   7   8
ATOM      8  C   UNL     1      -4.061   5.221  -3.597  1.00  0.00     0.010 C 
ATOM      9  C   UNL     1      -3.245   6.134  -4.513  1.00  0.00     0.009 C 
ATOM     10  C   UNL     1      -5.465   5.804  -3.416  1.00  0.00     0.009 C 
ENDBRANCH   7   8
BRANCH   7  11
ATOM     11  N   UNL     1      -4.812   3.930  -5.534  1.00  0.00    -0.198 NA
ATOM     12  H   UNL     1      -4.640   4.751  -6.132  1.00  0.00     0.142 HD
BRANCH  11  13
ATOM     13  S   UNL     1      -5.822   2.724  -6.053  1.00  0.00     0.241 S 
ATOM     14  O   UNL     1      -6.355   3.150  -7.299  1.00  0.00    -0.207 OA
ATOM     15  O   UNL     1      -5.107   1.505  -5.906  1.00  0.00    -0.207 OA
BRANCH  13  16
ATOM     16  C   UNL     1      -7.173   2.655  -4.924  1.00  0.00     0.083 A 
ATOM     17  C   UNL     1      -8.303   3.367  -5.187  1.00  0.00     0.030 A 
ATOM     18  C   UNL     1      -7.072   1.867  -3.779  1.00  0.00     0.022 A 
ATOM     19  C   UNL     1      -9.383   3.313  -4.289  1.00  0.00    -0.017 A 
ATOM     20  C   UNL     1      -8.095   1.795  -2.885  1.00  0.00     0.010 A 
ATOM     21  C   UNL     1      -9.278   2.516  -3.122  1.00  0.00    -0.018 A 
ATOM     22  C   UNL     1     -10.566   4.034  -4.527  1.00  0.00     0.009 A 
ATOM     23  C   UNL     1     -10.358   2.462  -2.225  1.00  0.00     0.009 A 
ATOM     24  C   UNL     1     -11.591   3.957  -3.635  1.00  0.00     0.001 A 
ATOM     25  C   UNL     1     -11.488   3.174  -2.487  1.00  0.00     0.001 A 
ENDBRANCH  13  16
ENDBRANCH  11  13
ENDBRANCH   7  11
ENDBRANCH   4   7
ENDBRANCH   1   3
BRANCH   1  26
ATOM     26  C   UNL     1      -0.288   1.503  -2.458  1.00  0.00     0.185 C 
ATOM     27  S   UNL     1       1.226   0.734  -2.674  1.00  0.00    -0.039 S 
BRANCH  26  28
ATOM     28  N   UNL     1      -0.852   1.551  -1.235  1.00  0.00    -0.361 N 
ATOM     29  H   UNL     1      -1.763   2.014  -1.106  1.00  0.00     0.162 HD
BRANCH  28  30
ATOM     30  C   UNL     1      -0.170   0.943  -0.090  1.00  0.00     0.120 C 
BRANCH  30  31
ATOM     31  C   UNL     1      -1.017   1.135   1.169  1.00  0.00     0.056 C 
BRANCH  31  32
ATOM     32  C   UNL     1      -0.315   0.511   2.347  1.00  0.00    -0.046 A 
ATOM     33  C   UNL     1       0.565   1.261   3.105  1.00  0.00     0.004 A 
ATOM     34  C   UNL     1      -0.555  -0.811   2.674  1.00  0.00     0.004 A 
ATOM     35  C   UNL     1       1.208   0.688   4.186  1.00  0.00     0.000 A 
ATOM     36  C   UNL     1       0.092  -1.385   3.752  1.00  0.00     0.000 A 
ATOM     37  C   UNL     1       0.973  -0.635   4.509  1.00  0.00     0.000 A 
ENDBRANCH  31  32
ENDBRANCH  30  31
ENDBRANCH  28  30
ENDBRANCH  26  28
ENDBRANCH   1  26
TORSDOF 11
