REMARK SMILES OC[C@@H]1CC[C@H](n2cnc3c(NC4CCCCCC4)nc(Cl)nc32)O1
REMARK SMILES IDX 12 1 11 3 8 4 7 5 9 6 24 7 10 8 23 9 21 10 20 11 22 12 6 13
REMARK SMILES IDX 25 14 5 15 3 16 4 17 2 18 1 19 13 21 19 22 18 23 17 24 14 26
REMARK SMILES IDX 15 27 16 28
REMARK H PARENT 12 2 1 20
REMARK Flexibility Score: 90.00
ROOT
ATOM      1  N   UNL     1       5.899   2.328   0.619  1.00  0.00    -0.365 N 
ATOM      2  H   UNL     1       5.810   3.173   0.038  1.00  0.00     0.162 HD
ENDROOT
BRANCH   1   3
ATOM      3  C   UNL     1       4.788   1.541   0.871  1.00  0.00     0.159 A 
ATOM      4  C   UNL     1       1.791   2.729  -0.637  1.00  0.00     0.204 A 
ATOM      5  N   UNL     1       1.358   1.603  -0.002  1.00  0.00    -0.288 N 
ATOM      6  N   UNL     1       3.067   2.888  -0.439  1.00  0.00    -0.231 NA
ATOM      7  C   UNL     1       2.441   1.045   0.630  1.00  0.00     0.169 A 
ATOM      8  C   UNL     1       3.531   1.881   0.340  1.00  0.00     0.150 A 
ATOM      9  N   UNL     1       2.633  -0.030   1.389  1.00  0.00    -0.198 NA
ATOM     10  C   UNL     1       3.829  -0.310   1.864  1.00  0.00     0.226 A 
ATOM     11  N   UNL     1       4.885   0.447   1.619  1.00  0.00    -0.198 NA
ATOM     12  Cl  UNL     1       4.027  -1.725   2.849  1.00  0.00    -0.041 Cl
BRANCH   5  13
ATOM     13  C   UNL     1      -0.013   1.086   0.008  1.00  0.00     0.222 C 
ATOM     14  O   UNL     1      -0.727   1.571  -1.141  1.00  0.00    -0.352 OA
ATOM     15  C   UNL     1      -0.754   1.593   1.260  1.00  0.00     0.058 C 
ATOM     16  C   UNL     1      -2.102   1.760  -0.730  1.00  0.00     0.146 C 
ATOM     17  C   UNL     1      -1.975   2.358   0.694  1.00  0.00     0.039 C 
BRANCH  16  18
ATOM     18  C   UNL     1      -2.813   2.740  -1.665  1.00  0.00     0.188 C 
BRANCH  18  19
ATOM     19  O   UNL     1      -3.020   2.121  -2.937  1.00  0.00    -0.394 OA
ATOM     20  H   UNL     1      -3.577   1.310  -2.823  1.00  0.00     0.210 HD
ENDBRANCH  18  19
ENDBRANCH  16  18
ENDBRANCH   5  13
ENDBRANCH   1   3
BRANCH   1  21
ATOM     21  C   UNL     1       7.200   1.957   1.181  1.00  0.00     0.080 C 
BRANCH  21  22
ATOM     22  C   UNL     1       8.251   2.524   0.348  1.00  0.00     0.025 C 
BRANCH  22  23
ATOM     23  C   UNL     1       9.661   2.128   0.830  1.00  0.00     0.002 C 
BRANCH  23  24
ATOM     24  C   UNL     1      10.037   3.012   1.988  1.00  0.00     0.000 CG0
ATOM     25  G   UNL     1       9.704   2.372   3.350  1.00  0.00     0.000 G0
ENDBRANCH  23  24
ENDBRANCH  22  23
ENDBRANCH  21  22
BRANCH  21  26
ATOM     26  C   UNL     1       7.274   2.453   2.639  1.00  0.00     0.025 C 
BRANCH  26  27
ATOM     27  C   UNL     1       8.335   1.664   3.358  1.00  0.00     0.002 C 
BRANCH  27  28
ATOM     28  C   UNL     1       9.704   2.372   3.350  1.00  0.00     0.000 CG0
ATOM     29  G   UNL     1      10.037   3.012   1.988  1.00  0.00     0.000 G0
ENDBRANCH  27  28
ENDBRANCH  26  27
ENDBRANCH  21  26
ENDBRANCH   1  21
TORSDOF 5
