REMARK SMILES CCn1c(=O)[nH]c(=O)c2cc(C(=O)N[C@@H](c3cccs3)C(C)C)cnc21
REMARK SMILES IDX 12 1 13 2 14 3 11 5 3 6 4 7 26 8 6 9 5 10 25 11 9 12 7 13
REMARK SMILES IDX 24 15 10 16 8 17 2 18 1 19 15 20 16 21 20 22 17 23 19 24
REMARK SMILES IDX 18 25 21 26 22 27 23 28
REMARK H PARENT 14 4 6 14
REMARK Flexibility Score: inf
ROOT
ATOM      1  C   UNL     1      -3.220  -3.852   3.695  1.00  0.00     0.253 C 
ATOM      2  O   UNL     1      -4.349  -4.304   3.723  1.00  0.00    -0.269 OA
ATOM      3  N   UNL     1      -2.205  -4.539   4.254  1.00  0.00    -0.344 N 
ATOM      4  H   UNL     1      -1.249  -4.156   4.230  1.00  0.00     0.164 HD
ENDROOT
BRANCH   1   5
ATOM      5  C   UNL     1      -2.963  -2.549   3.048  1.00  0.00     0.059 A 
ATOM      6  N   UNL     1      -2.103   1.072   1.277  1.00  0.00    -0.278 N 
ATOM      7  C   UNL     1      -3.082   1.798   0.711  1.00  0.00     0.329 A 
ATOM      8  C   UNL     1      -2.377  -0.143   1.874  1.00  0.00     0.149 A 
ATOM      9  N   UNL     1      -4.362   1.397   0.677  1.00  0.00    -0.273 N 
ATOM     10  O   UNL     1      -2.793   2.864   0.203  1.00  0.00    -0.248 OA
ATOM     11  N   UNL     1      -1.419  -0.862   2.439  1.00  0.00    -0.237 NA
ATOM     12  C   UNL     1      -3.707  -0.608   1.871  1.00  0.00     0.084 A 
ATOM     13  C   UNL     1      -4.741   0.225   1.231  1.00  0.00     0.263 A 
ATOM     14  H   UNL     1      -5.068   1.994   0.221  1.00  0.00     0.175 HD
ATOM     15  C   UNL     1      -1.669  -2.021   3.011  1.00  0.00     0.127 A 
ATOM     16  C   UNL     1      -4.011  -1.827   2.465  1.00  0.00     0.033 A 
ATOM     17  O   UNL     1      -5.903  -0.134   1.203  1.00  0.00    -0.269 OA
BRANCH   6  18
ATOM     18  C   UNL     1      -0.729   1.579   1.267  1.00  0.00     0.126 C 
ATOM     19  C   UNL     1      -0.013   1.086   0.008  1.00  0.00     0.028 C 
ENDBRANCH   6  18
ENDBRANCH   1   5
BRANCH   3  20
ATOM     20  C   UNL     1      -2.460  -5.831   4.895  1.00  0.00     0.125 C 
BRANCH  20  21
ATOM     21  C   UNL     1      -1.199  -6.655   4.884  1.00  0.00     0.027 A 
ATOM     22  S   UNL     1       0.487  -6.135   5.160  1.00  0.00    -0.147 S 
ATOM     23  C   UNL     1      -1.049  -7.983   4.656  1.00  0.00     0.017 A 
ATOM     24  C   UNL     1       1.276  -7.724   4.962  1.00  0.00     0.065 A 
ATOM     25  C   UNL     1       0.220  -8.531   4.696  1.00  0.00     0.012 A 
ENDBRANCH  20  21
BRANCH  20  26
ATOM     26  C   UNL     1      -2.908  -5.603   6.340  1.00  0.00     0.011 C 
ATOM     27  C   UNL     1      -3.175  -6.953   7.010  1.00  0.00     0.010 C 
ATOM     28  C   UNL     1      -1.808  -4.863   7.104  1.00  0.00     0.010 C 
ENDBRANCH  20  26
ENDBRANCH   3  20
TORSDOF 5
