REMARK SMILES Cc1cc(C)cc(CC(=O)N2CCC[C@](CC[NH+]3CCN(C4(C(N)=O)CCCCC4)CC3)(c3ccc(Cl)c(Cl)c3)C2)c1
REMARK SMILES IDX 16 1 15 2 11 3 41 4 12 5 13 6 14 7 9 8 10 9 8 10 7 11 1 12
REMARK SMILES IDX 2 13 42 14 3 15 4 16 6 17 5 18 33 19 40 20 34 21 38 22 35 23
REMARK SMILES IDX 36 24 39 25 37 26 17 27 18 28 32 29 19 30 31 32 20 33 21 34
REMARK SMILES IDX 22 35 30 36 26 37 29 38 27 39 28 40 23 41 25 42 24 43
REMARK H PARENT 18 31 24 44 24 45
REMARK Flexibility Score: inf
ROOT
ATOM      1  C   UNL     1       3.643   2.052  -0.170  1.00  0.00     0.075 C 
ENDROOT
BRANCH   1   2
ATOM      2  C   UNL     1       2.484   1.060  -0.049  1.00  0.00     0.018 C 
ATOM      3  N   UNL     1       3.720  -0.711  -1.185  1.00  0.00    -0.342 N 
ATOM      4  C   UNL     1       2.500   0.106  -1.247  1.00  0.00     0.131 C 
ATOM      5  C   UNL     1       4.008  -1.457   0.047  1.00  0.00     0.119 C 
ATOM      6  C   UNL     1       3.975  -0.485   1.231  1.00  0.00     0.022 C 
ATOM      7  C   UNL     1       2.635   0.253   1.242  1.00  0.00     0.016 C 
BRANCH   3   8
ATOM      8  C   UNL     1       4.558  -0.774  -2.239  1.00  0.00     0.227 C 
ATOM      9  O   UNL     1       4.309  -0.153  -3.250  1.00  0.00    -0.275 OA
BRANCH   8  10
ATOM     10  C   UNL     1       5.806  -1.616  -2.159  1.00  0.00     0.135 C 
BRANCH  10  11
ATOM     11  C   UNL     1       6.563  -1.515  -3.458  1.00  0.00    -0.038 A 
ATOM     12  C   UNL     1       6.716  -3.291  -6.787  1.00  0.00     0.044 C 
ATOM     13  C   UNL     1       6.999  -2.317  -5.672  1.00  0.00    -0.051 A 
ATOM     14  C   UNL     1       6.307  -2.412  -4.479  1.00  0.00     0.007 A 
ATOM     15  C   UNL     1       7.953  -1.331  -5.841  1.00  0.00     0.006 A 
ATOM     16  C   UNL     1       8.212  -0.437  -4.819  1.00  0.00    -0.051 A 
ATOM     17  C   UNL     1       7.517  -0.530  -3.627  1.00  0.00     0.007 A 
ATOM     18  C   UNL     1       9.252   0.638  -5.003  1.00  0.00     0.044 C 
ENDBRANCH  10  11
ENDBRANCH   8  10
ENDBRANCH   3   8
BRANCH   2  19
ATOM     19  C   UNL     1       1.179   1.812  -0.022  1.00  0.00    -0.038 A 
ATOM     20  C   UNL     1       1.162   3.175  -0.249  1.00  0.00     0.026 A 
ATOM     21  C   UNL     1      -0.002   1.138   0.229  1.00  0.00     0.006 A 
ATOM     22  C   UNL     1      -0.036   3.866  -0.225  1.00  0.00     0.059 A 
ATOM     23  C   UNL     1      -1.201   1.826   0.247  1.00  0.00     0.022 A 
ATOM     24  C   UNL     1      -1.218   3.191   0.026  1.00  0.00     0.059 A 
ATOM     25  Cl  UNL     1      -0.057   5.579  -0.509  1.00  0.00    -0.083 Cl
ATOM     26  Cl  UNL     1      -2.723   4.057   0.057  1.00  0.00    -0.083 Cl
ENDBRANCH   2  19
ENDBRANCH   1   2
BRANCH   1  27
ATOM     27  C   UNL     1       3.678   2.948   1.070  1.00  0.00     0.263 C 
BRANCH  27  28
ATOM     28  N   UNL     1       4.706   3.983   0.896  1.00  0.00    -0.333 N 
ATOM     29  C   UNL     1       4.611   5.001   1.952  1.00  0.00     0.278 C 
ATOM     30  C   UNL     1       6.050   3.391   0.859  1.00  0.00     0.278 C 
ATOM     31  H   UNL     1       4.537   4.447  -0.008  1.00  0.00     0.348 HD
ATOM     32  C   UNL     1       5.644   6.100   1.692  1.00  0.00     0.147 C 
ATOM     33  C   UNL     1       7.082   4.490   0.598  1.00  0.00     0.147 C 
ATOM     34  N   UNL     1       6.988   5.508   1.654  1.00  0.00    -0.278 NA
BRANCH  34  35
ATOM     35  C   UNL     1       8.015   6.543   1.480  1.00  0.00     0.100 C 
ATOM     36  C   UNL     1       9.403   5.902   1.553  1.00  0.00     0.033 C 
ATOM     37  C   UNL     1       7.835   7.217   0.119  1.00  0.00     0.033 C 
ATOM     38  C   UNL     1      10.473   6.981   1.372  1.00  0.00     0.002 C 
ATOM     39  C   UNL     1       8.905   8.296  -0.062  1.00  0.00     0.002 C 
ATOM     40  C   UNL     1      10.293   7.655   0.010  1.00  0.00     0.000 C 
BRANCH  35  41
ATOM     41  C   UNL     1       7.880   7.573   2.573  1.00  0.00     0.237 C 
ATOM     42  O   UNL     1       8.018   8.750   2.316  1.00  0.00    -0.273 OA
ATOM     43  N   UNL     1       7.606   7.185   3.834  1.00  0.00    -0.368 N 
ATOM     44  H   UNL     1       7.489   6.185   4.051  1.00  0.00     0.159 HD
ATOM     45  H   UNL     1       7.513   7.889   4.580  1.00  0.00     0.159 HD
ENDBRANCH  35  41
ENDBRANCH  34  35
ENDBRANCH  27  28
ENDBRANCH   1  27
TORSDOF 9
