REMARK SMILES COC(=O)[C@@H]1C[C@@H](NC(=O)c2[nH]c3ccc(Cl)cc3c2-c2ccccc2)CN1Cc1ccccc1F
REMARK SMILES IDX 5 1 6 2 7 3 27 4 28 5 3 6 4 7 2 8 1 9 29 10 30 11 35 12
REMARK SMILES IDX 31 13 34 14 36 15 32 16 33 17 8 18 9 19 10 21 11 22 12 23
REMARK SMILES IDX 20 24 13 25 19 27 14 28 18 29 15 30 16 31 17 32 21 33 26 34
REMARK SMILES IDX 22 35 25 36 23 37 24 38
REMARK H PARENT 8 20 12 26
REMARK Flexibility Score: inf
ROOT
ATOM      1  C   UNL     1       4.788  -2.769   0.565  1.00  0.00     0.170 C 
ATOM      2  C   UNL     1       4.152  -1.925  -0.560  1.00  0.00     0.057 C 
ATOM      3  C   UNL     1       4.034  -0.502   0.024  1.00  0.00     0.098 C 
ATOM      4  C   UNL     1       4.609  -0.606   1.453  1.00  0.00     0.110 C 
ATOM      5  N   UNL     1       5.486  -1.773   1.386  1.00  0.00    -0.284 NA
ENDROOT
BRANCH   1   6
ATOM      6  C   UNL     1       5.750  -3.775  -0.013  1.00  0.00     0.323 C 
ATOM      7  O   UNL     1       6.929  -3.698   0.239  1.00  0.00    -0.250 OA
BRANCH   6   8
ATOM      8  O   UNL     1       5.296  -4.757  -0.807  1.00  0.00    -0.468 OA
ATOM      9  C   UNL     1       6.279  -5.691  -1.328  1.00  0.00     0.282 C 
ENDBRANCH   6   8
ENDBRANCH   1   6
BRANCH   5  10
ATOM     10  C   UNL     1       5.752  -2.317   2.755  1.00  0.00     0.124 C 
BRANCH  10  11
ATOM     11  C   UNL     1       6.524  -1.308   3.566  1.00  0.00     0.002 A 
ATOM     12  C   UNL     1       5.859  -0.270   4.196  1.00  0.00     0.127 A 
ATOM     13  C   UNL     1       7.896  -1.422   3.684  1.00  0.00     0.008 A 
ATOM     14  C   UNL     1       6.571   0.656   4.940  1.00  0.00     0.039 A 
ATOM     15  F   UNL     1       4.517  -0.162   4.085  1.00  0.00    -0.207 F 
ATOM     16  C   UNL     1       8.606  -0.494   4.423  1.00  0.00     0.001 A 
ATOM     17  C   UNL     1       7.943   0.543   5.053  1.00  0.00     0.003 A 
ENDBRANCH  10  11
ENDBRANCH   5  10
BRANCH   3  18
ATOM     18  N   UNL     1       2.630  -0.085   0.070  1.00  0.00    -0.347 N 
ATOM     19  C   UNL     1       2.317   1.225   0.111  1.00  0.00     0.268 C 
ATOM     20  H   UNL     1       1.882  -0.794   0.070  1.00  0.00     0.164 HD
ATOM     21  O   UNL     1       3.200   2.062   0.111  1.00  0.00    -0.268 OA
BRANCH  19  22
ATOM     22  C   UNL     1       0.911   1.642   0.157  1.00  0.00     0.113 A 
ATOM     23  N   UNL     1      -0.176   0.794   0.163  1.00  0.00    -0.350 N 
ATOM     24  C   UNL     1       0.463   2.949   0.202  1.00  0.00     0.020 A 
ATOM     25  C   UNL     1      -1.343   1.520   0.205  1.00  0.00     0.047 A 
ATOM     26  H   UNL     1      -0.122  -0.235   0.139  1.00  0.00     0.167 HD
ATOM     27  C   UNL     1      -1.004   2.885   0.237  1.00  0.00     0.010 A 
ATOM     28  C   UNL     1      -2.687   1.153   0.222  1.00  0.00     0.028 A 
ATOM     29  C   UNL     1      -2.009   3.854   0.288  1.00  0.00     0.031 A 
ATOM     30  C   UNL     1      -3.662   2.124   0.267  1.00  0.00     0.022 A 
ATOM     31  C   UNL     1      -3.321   3.471   0.295  1.00  0.00     0.041 A 
ATOM     32  Cl  UNL     1      -4.570   4.676   0.350  1.00  0.00    -0.084 Cl
BRANCH  24  33
ATOM     33  C   UNL     1       1.296   4.172   0.213  1.00  0.00    -0.015 A 
ATOM     34  C   UNL     1       2.084   4.492  -0.893  1.00  0.00     0.009 A 
ATOM     35  C   UNL     1       1.293   5.012   1.327  1.00  0.00     0.009 A 
ATOM     36  C   UNL     1       2.859   5.634  -0.877  1.00  0.00     0.001 A 
ATOM     37  C   UNL     1       2.076   6.148   1.332  1.00  0.00     0.001 A 
ATOM     38  C   UNL     1       2.856   6.460   0.232  1.00  0.00     0.000 A 
ENDBRANCH  24  33
ENDBRANCH  19  22
ENDBRANCH   3  18
TORSDOF 7
