REMARK SMILES O=C1N(Cc2ccccc2)[C@H](Cc2ccc3c(c2)CCO3)[C@H](O)[C@@H](O)[C@@H](Cc2ccc3c(c2)CCO3)N1Cc1ccccc1
REMARK SMILES IDX 2 1 1 2 37 3 38 4 39 5 42 6 43 7 41 8 44 9 40 10 26 11 24 12
REMARK SMILES IDX 25 14 27 16 28 17 33 18 29 19 32 20 30 21 31 22 34 23 36 24
REMARK SMILES IDX 35 25 3 26 11 27 22 28 23 30 12 32 13 33 18 34 14 35 17 36
REMARK SMILES IDX 15 37 16 38 19 39 21 40 20 41 4 42 5 43 10 44 6 45 9 46 7 47
REMARK SMILES IDX 8 48
REMARK H PARENT 25 15 23 31
REMARK Flexibility Score: 80.00
ROOT
ATOM      1  C   UNL     1      -1.206   4.581  -3.282  1.00  0.00     0.321 C 
ATOM      2  O   UNL     1      -0.913   5.760  -3.408  1.00  0.00    -0.248 OA
ENDROOT
BRANCH   1   3
ATOM      3  N   UNL     1      -1.972   4.066  -4.225  1.00  0.00    -0.314 N 
BRANCH   3   4
ATOM      4  C   UNL     1      -2.867   4.993  -4.932  1.00  0.00     0.157 C 
BRANCH   4   5
ATOM      5  C   UNL     1      -2.110   5.671  -6.045  1.00  0.00    -0.028 A 
ATOM      6  C   UNL     1      -0.721   6.915  -8.086  1.00  0.00     0.000 A 
ATOM      7  C   UNL     1      -0.752   7.482  -6.826  1.00  0.00     0.000 A 
ATOM      8  C   UNL     1      -1.384   5.726  -8.326  1.00  0.00     0.000 A 
ATOM      9  C   UNL     1      -1.451   6.862  -5.807  1.00  0.00     0.005 A 
ATOM     10  C   UNL     1      -2.079   5.104  -7.305  1.00  0.00     0.005 A 
ENDBRANCH   4   5
ENDBRANCH   3   4
BRANCH   3  11
ATOM     11  C   UNL     1      -2.015   2.667  -4.630  1.00  0.00     0.123 C 
BRANCH  11  12
ATOM     12  C   UNL     1      -0.790   1.905  -4.126  1.00  0.00     0.168 CG0
ATOM     13  G   UNL     1      -0.914   1.527  -2.667  1.00  0.00     0.000 G0
BRANCH  12  14
ATOM     14  O   UNL     1      -0.619   0.715  -4.908  1.00  0.00    -0.388 OA
ATOM     15  H   UNL     1      -0.488   0.957  -5.859  1.00  0.00     0.211 HD
ENDBRANCH  12  14
ENDBRANCH  11  12
BRANCH  11  16
ATOM     16  C   UNL     1      -3.313   2.015  -4.162  1.00  0.00     0.063 C 
BRANCH  16  17
ATOM     17  C   UNL     1      -4.476   2.625  -4.901  1.00  0.00    -0.045 A 
ATOM     18  C   UNL     1      -4.778   2.208  -6.185  1.00  0.00     0.011 A 
ATOM     19  C   UNL     1      -5.250   3.598  -4.295  1.00  0.00     0.007 A 
ATOM     20  C   UNL     1      -5.841   2.767  -6.858  1.00  0.00    -0.002 A 
ATOM     21  C   UNL     1      -6.310   4.166  -4.971  1.00  0.00     0.047 A 
ATOM     22  C   UNL     1      -6.617   3.755  -6.266  1.00  0.00     0.122 A 
ATOM     23  C   UNL     1      -6.421   2.514  -8.237  1.00  0.00     0.081 C 
ATOM     24  O   UNL     1      -7.597   4.183  -7.108  1.00  0.00    -0.493 OA
ATOM     25  C   UNL     1      -7.805   3.196  -8.132  1.00  0.00     0.234 C 
ENDBRANCH  16  17
ENDBRANCH  11  16
ENDBRANCH   3  11
ENDBRANCH   1   3
BRANCH   1  26
ATOM     26  N   UNL     1      -0.670   3.937  -2.234  1.00  0.00    -0.314 N 
BRANCH  26  27
ATOM     27  C   UNL     1      -1.230   2.680  -1.741  1.00  0.00     0.123 C 
BRANCH  27  28
ATOM     28  C   UNL     1      -0.914   1.527  -2.667  1.00  0.00     0.168 CG0
ATOM     29  G   UNL     1      -0.790   1.905  -4.126  1.00  0.00     0.000 G0
BRANCH  28  30
ATOM     30  O   UNL     1       0.333   0.949  -2.247  1.00  0.00    -0.388 OA
ATOM     31  H   UNL     1       1.066   1.605  -2.354  1.00  0.00     0.211 HD
ENDBRANCH  28  30
ENDBRANCH  27  28
BRANCH  27  32
ATOM     32  C   UNL     1      -0.644   2.385  -0.354  1.00  0.00     0.063 C 
BRANCH  32  33
ATOM     33  C   UNL     1      -1.331   1.179   0.234  1.00  0.00    -0.045 A 
ATOM     34  C   UNL     1      -0.747  -0.071   0.132  1.00  0.00     0.011 A 
ATOM     35  C   UNL     1      -2.543   1.319   0.884  1.00  0.00     0.007 A 
ATOM     36  C   UNL     1      -1.376  -1.171   0.671  1.00  0.00    -0.002 A 
ATOM     37  C   UNL     1      -3.180   0.217   1.416  1.00  0.00     0.047 A 
ATOM     38  C   UNL     1      -2.601  -1.045   1.314  1.00  0.00     0.122 A 
ATOM     39  C   UNL     1      -0.989  -2.636   0.735  1.00  0.00     0.081 C 
ATOM     40  O   UNL     1      -3.055  -2.252   1.750  1.00  0.00    -0.493 OA
ATOM     41  C   UNL     1      -1.954  -3.175   1.817  1.00  0.00     0.234 C 
ENDBRANCH  32  33
ENDBRANCH  27  32
ENDBRANCH  26  27
BRANCH  26  42
ATOM     42  C   UNL     1       0.505   4.510  -1.565  1.00  0.00     0.157 C 
BRANCH  42  43
ATOM     43  C   UNL     1       1.752   4.111  -2.312  1.00  0.00    -0.028 A 
ATOM     44  C   UNL     1       2.242   4.921  -3.320  1.00  0.00     0.005 A 
ATOM     45  C   UNL     1       2.408   2.940  -1.986  1.00  0.00     0.005 A 
ATOM     46  C   UNL     1       3.386   4.556  -4.005  1.00  0.00     0.000 A 
ATOM     47  C   UNL     1       3.549   2.572  -2.674  1.00  0.00     0.000 A 
ATOM     48  C   UNL     1       4.040   3.381  -3.682  1.00  0.00     0.000 A 
ENDBRANCH  42  43
ENDBRANCH  26  42
ENDBRANCH   1  26
TORSDOF 10
