REMARK SMILES O=C([N-]c1nc2n(n1)[C@@H](c1ccc(Cl)cc1)C=C(c1ccc(Cl)cc1)N2)c1cccnc1
REMARK SMILES IDX 3 1 2 2 1 3 27 4 29 5 30 6 28 7 31 8 32 9 4 10 8 11 5 12
REMARK SMILES IDX 7 13 6 14 9 15 26 16 17 17 18 18 10 20 16 21 11 22 15 23
REMARK SMILES IDX 12 24 13 25 14 26 19 27 25 28 20 29 24 30 21 31 22 32 23 33
REMARK H PARENT 26 19
REMARK Flexibility Score: inf
ROOT
ATOM      1  N   UNL     1      -3.226   1.796   3.671  1.00  0.00    -0.321 NA
ENDROOT
BRANCH   1   2
ATOM      2  C   UNL     1      -3.311   2.596   4.753  1.00  0.00     0.212 C 
ATOM      3  O   UNL     1      -2.422   3.389   4.994  1.00  0.00    -0.285 OA
BRANCH   2   4
ATOM      4  C   UNL     1      -4.486   2.509   5.646  1.00  0.00     0.044 A 
ATOM      5  C   UNL     1      -5.706   3.212   7.577  1.00  0.00     0.021 A 
ATOM      6  C   UNL     1      -6.681   2.290   7.244  1.00  0.00     0.111 A 
ATOM      7  C   UNL     1      -4.584   3.330   6.776  1.00  0.00     0.015 A 
ATOM      8  N   UNL     1      -6.560   1.525   6.175  1.00  0.00    -0.264 NA
ATOM      9  C   UNL     1      -5.514   1.603   5.380  1.00  0.00     0.123 A 
ENDBRANCH   2   4
ENDBRANCH   1   2
BRANCH   1  10
ATOM     10  C   UNL     1      -2.116   1.879   2.827  1.00  0.00     0.050 A 
ATOM     11  N   UNL     1      -1.923   1.154   1.747  1.00  0.00    -0.293 NA
ATOM     12  N   UNL     1      -1.076   2.710   2.988  1.00  0.00    -0.326 NA
ATOM     13  N   UNL     1      -0.702   1.556   1.207  1.00  0.00    -0.294 N 
ATOM     14  C   UNL     1      -0.216   2.524   2.023  1.00  0.00     0.141 A 
ATOM     15  C   UNL     1      -0.013   1.086   0.008  1.00  0.00     0.150 C 
ATOM     16  N   UNL     1       1.001   3.141   1.778  1.00  0.00    -0.338 N 
ATOM     17  C   UNL     1       1.399   1.606  -0.003  1.00  0.00     0.030 C 
ATOM     18  C   UNL     1       1.834   2.551   0.819  1.00  0.00     0.045 C 
ATOM     19  H   UNL     1       1.281   3.996   2.280  1.00  0.00     0.168 HD
BRANCH  15  20
ATOM     20  C   UNL     1      -0.740   1.584  -1.214  1.00  0.00    -0.021 A 
ATOM     21  C   UNL     1      -1.259   0.683  -2.125  1.00  0.00     0.008 A 
ATOM     22  C   UNL     1      -0.891   2.942  -1.423  1.00  0.00     0.008 A 
ATOM     23  C   UNL     1      -1.926   1.139  -3.246  1.00  0.00     0.021 A 
ATOM     24  C   UNL     1      -1.553   3.400  -2.546  1.00  0.00     0.021 A 
ATOM     25  C   UNL     1      -2.073   2.498  -3.458  1.00  0.00     0.041 A 
ATOM     26  Cl  UNL     1      -2.911   3.072  -4.865  1.00  0.00    -0.084 Cl
ENDBRANCH  15  20
BRANCH  18  27
ATOM     27  C   UNL     1       3.243   2.997   0.719  1.00  0.00    -0.002 A 
ATOM     28  C   UNL     1       3.725   3.989   1.572  1.00  0.00     0.012 A 
ATOM     29  C   UNL     1       4.094   2.421  -0.224  1.00  0.00     0.012 A 
ATOM     30  C   UNL     1       5.038   4.401   1.475  1.00  0.00     0.021 A 
ATOM     31  C   UNL     1       5.404   2.844  -0.317  1.00  0.00     0.021 A 
ATOM     32  C   UNL     1       5.877   3.830   0.533  1.00  0.00     0.041 A 
ATOM     33  Cl  UNL     1       7.529   4.352   0.416  1.00  0.00    -0.084 Cl
ENDBRANCH  18  27
ENDBRANCH   1  10
TORSDOF 5
