REMARK SMILES Cc1cc(C)c2cc([C@@H](c3nnnn3CCc3ccccc3)N3CC[NH+](Cc4ccccc4)CC3)c(=O)[nH]c2c1
REMARK SMILES IDX 10 1 11 2 12 3 13 4 14 5 9 6 8 7 1 8 2 9 40 10 3 11 39 12
REMARK SMILES IDX 4 13 6 14 38 15 5 16 7 17 36 18 37 20 23 21 24 22 35 23
REMARK SMILES IDX 25 24 34 25 26 26 27 28 28 29 33 30 29 31 32 32 30 33 31 34
REMARK SMILES IDX 15 35 16 36 17 37 22 38 18 39 21 40 19 41 20 42
REMARK H PARENT 38 19 26 27
REMARK Flexibility Score: inf
ROOT
ATOM      1  C   UNL     1       4.878   4.975  -1.362  1.00  0.00     0.173 A 
ATOM      2  N   UNL     1       4.107   5.967  -1.736  1.00  0.00    -0.112 NA
ATOM      3  N   UNL     1       4.417   6.276  -2.948  1.00  0.00    -0.024 NA
ATOM      4  N   UNL     1       5.359   5.502  -3.360  1.00  0.00    -0.045 NA
ATOM      5  N   UNL     1       5.671   4.686  -2.411  1.00  0.00    -0.227 N 
ENDROOT
BRANCH   1   6
ATOM      6  C   UNL     1       4.873   4.287  -0.021  1.00  0.00     0.164 C 
BRANCH   6   7
ATOM      7  C   UNL     1       3.667   3.388   0.078  1.00  0.00     0.043 A 
ATOM      8  C   UNL     1      -0.875  -1.216   0.519  1.00  0.00     0.044 C 
ATOM      9  C   UNL     1       0.359  -0.357   0.420  1.00  0.00    -0.049 A 
ATOM     10  C   UNL     1       0.232   1.014   0.352  1.00  0.00     0.030 A 
ATOM     11  C   UNL     1       1.612  -0.955   0.398  1.00  0.00     0.007 A 
ATOM     12  C   UNL     1       1.370   1.808   0.261  1.00  0.00     0.049 A 
ATOM     13  C   UNL     1       2.743  -0.194   0.309  1.00  0.00    -0.042 A 
ATOM     14  C   UNL     1       2.638   1.199   0.240  1.00  0.00     0.002 A 
ATOM     15  N   UNL     1       1.272   3.182   0.192  1.00  0.00    -0.322 N 
ATOM     16  C   UNL     1       4.098  -0.853   0.288  1.00  0.00     0.045 C 
ATOM     17  C   UNL     1       3.830   2.044   0.143  1.00  0.00     0.022 A 
ATOM     18  C   UNL     1       2.373   3.950   0.103  1.00  0.00     0.253 A 
ATOM     19  H   UNL     1       0.343   3.626   0.207  1.00  0.00     0.170 HD
ATOM     20  O   UNL     1       2.249   5.161   0.044  1.00  0.00    -0.269 OA
ENDBRANCH   6   7
BRANCH   6  21
ATOM     21  N   UNL     1       4.798   5.310   1.043  1.00  0.00    -0.278 NA
ATOM     22  C   UNL     1       5.949   6.232   0.940  1.00  0.00     0.147 C 
ATOM     23  C   UNL     1       4.792   4.659   2.370  1.00  0.00     0.147 C 
ATOM     24  C   UNL     1       5.816   7.310   2.018  1.00  0.00     0.278 C 
ATOM     25  C   UNL     1       4.659   5.737   3.448  1.00  0.00     0.278 C 
ATOM     26  N   UNL     1       5.809   6.659   3.345  1.00  0.00    -0.329 N 
ATOM     27  H   UNL     1       6.681   6.121   3.459  1.00  0.00     0.348 HD
BRANCH  26  28
ATOM     28  C   UNL     1       5.735   7.682   4.410  1.00  0.00     0.299 C 
BRANCH  28  29
ATOM     29  C   UNL     1       7.021   8.467   4.421  1.00  0.00     0.006 A 
ATOM     30  C   UNL     1       7.137   9.615   3.660  1.00  0.00     0.009 A 
ATOM     31  C   UNL     1       8.083   8.043   5.198  1.00  0.00     0.009 A 
ATOM     32  C   UNL     1       8.317  10.335   3.671  1.00  0.00     0.001 A 
ATOM     33  C   UNL     1       9.264   8.760   5.205  1.00  0.00     0.001 A 
ATOM     34  C   UNL     1       9.381   9.908   4.443  1.00  0.00     0.000 A 
ENDBRANCH  28  29
ENDBRANCH  26  28
ENDBRANCH   6  21
ENDBRANCH   1   6
BRANCH   5  35
ATOM     35  C   UNL     1       6.697   3.641  -2.464  1.00  0.00     0.153 C 
BRANCH  35  36
ATOM     36  C   UNL     1       6.072   2.338  -2.967  1.00  0.00     0.059 C 
BRANCH  36  37
ATOM     37  C   UNL     1       7.127   1.263  -3.022  1.00  0.00    -0.046 A 
ATOM     38  C   UNL     1       7.352   0.459  -1.920  1.00  0.00     0.004 A 
ATOM     39  C   UNL     1       7.865   1.077  -4.176  1.00  0.00     0.004 A 
ATOM     40  C   UNL     1       8.319  -0.527  -1.971  1.00  0.00     0.000 A 
ATOM     41  C   UNL     1       8.836   0.095  -4.224  1.00  0.00     0.000 A 
ATOM     42  C   UNL     1       9.062  -0.709  -3.123  1.00  0.00     0.000 A 
ENDBRANCH  36  37
ENDBRANCH  35  36
ENDBRANCH   5  35
TORSDOF 8
