REMARK SMILES CCNC(=O)c1noc(-c2cc(CCc3ccccc3)c(O)cc2O)c1-c1ccc(CN2CCOCC2)cc1
REMARK SMILES IDX 10 1 11 2 12 3 21 4 23 5 24 6 9 7 6 8 7 9 26 10 8 11 4 12
REMARK SMILES IDX 3 13 5 15 2 16 1 17 27 18 39 19 28 20 38 21 29 22 30 23
REMARK SMILES IDX 31 24 32 25 37 26 33 27 36 28 34 29 35 30 25 31 13 33 14 34
REMARK SMILES IDX 15 35 20 36 16 37 19 38 17 39 18 40 22 41
REMARK H PARENT 3 14 25 32 22 42
REMARK Flexibility Score: inf
ROOT
ATOM      1  C   UNL     1       6.705  -3.791  -1.446  1.00  0.00     0.063 A 
ATOM      2  C   UNL     1       7.559  -3.333  -0.438  1.00  0.00     0.023 A 
ATOM      3  C   UNL     1       7.535  -2.007  -0.067  1.00  0.00    -0.005 A 
ATOM      4  C   UNL     1       6.661  -1.122  -0.688  1.00  0.00     0.122 A 
ATOM      5  C   UNL     1       5.814  -1.565  -1.694  1.00  0.00     0.093 A 
ATOM      6  C   UNL     1       5.828  -2.895  -2.075  1.00  0.00     0.130 A 
ENDROOT
BRANCH   1   7
ATOM      7  C   UNL     1       6.727  -5.209  -1.846  1.00  0.00     0.179 A 
ATOM      8  C   UNL     1       7.267  -7.294  -2.457  1.00  0.00     0.179 A 
ATOM      9  N   UNL     1       5.970  -7.135  -2.352  1.00  0.00    -0.073 NA
ATOM     10  C   UNL     1       7.851  -5.986  -2.116  1.00  0.00     0.063 A 
ATOM     11  O   UNL     1       5.666  -6.016  -2.018  1.00  0.00    -0.355 OA
BRANCH   8  12
ATOM     12  C   UNL     1       7.992  -8.529  -2.838  1.00  0.00     0.274 C 
ATOM     13  N   UNL     1       7.305  -9.654  -3.121  1.00  0.00    -0.351 N 
ATOM     14  H   UNL     1       6.276  -9.654  -3.074  1.00  0.00     0.163 HD
ATOM     15  O   UNL     1       9.206  -8.528  -2.894  1.00  0.00    -0.267 OA
BRANCH  13  16
ATOM     16  C   UNL     1       8.022 -10.875  -3.498  1.00  0.00     0.113 C 
ATOM     17  C   UNL     1       7.015 -11.995  -3.766  1.00  0.00     0.027 C 
ENDBRANCH  13  16
ENDBRANCH   8  12
BRANCH  10  18
ATOM     18  C   UNL     1       9.278  -5.594  -2.072  1.00  0.00    -0.012 A 
ATOM     19  C   UNL     1      10.127  -6.148  -1.114  1.00  0.00     0.009 A 
ATOM     20  C   UNL     1       9.780  -4.673  -2.992  1.00  0.00     0.009 A 
ATOM     21  C   UNL     1      11.456  -5.778  -1.077  1.00  0.00     0.006 A 
ATOM     22  C   UNL     1      11.110  -4.307  -2.941  1.00  0.00     0.006 A 
ATOM     23  C   UNL     1      11.947  -4.860  -1.989  1.00  0.00    -0.034 A 
BRANCH  23  24
ATOM     24  C   UNL     1      13.399  -4.461  -1.943  1.00  0.00     0.120 C 
BRANCH  24  25
ATOM     25  N   UNL     1      14.182  -5.362  -2.800  1.00  0.00    -0.295 NA
ATOM     26  C   UNL     1      15.555  -4.867  -2.970  1.00  0.00     0.113 C 
ATOM     27  C   UNL     1      14.185  -6.730  -2.261  1.00  0.00     0.113 C 
ATOM     28  C   UNL     1      16.316  -5.801  -3.915  1.00  0.00     0.175 C 
ATOM     29  C   UNL     1      14.959  -7.646  -3.213  1.00  0.00     0.175 C 
ATOM     30  O   UNL     1      16.281  -7.131  -3.392  1.00  0.00    -0.379 OA
ENDBRANCH  24  25
ENDBRANCH  23  24
ENDBRANCH  10  18
ENDBRANCH   1   7
BRANCH   6  31
ATOM     31  O   UNL     1       4.996  -3.332  -3.055  1.00  0.00    -0.507 OA
ATOM     32  H   UNL     1       4.479  -4.067  -2.640  1.00  0.00     0.293 HD
ENDBRANCH   6  31
BRANCH   3  33
ATOM     33  C   UNL     1       8.455  -1.515   1.020  1.00  0.00     0.044 C 
BRANCH  33  34
ATOM     34  C   UNL     1       9.668  -0.828   0.389  1.00  0.00     0.040 C 
BRANCH  34  35
ATOM     35  C   UNL     1      10.588  -0.336   1.476  1.00  0.00    -0.048 A 
ATOM     36  C   UNL     1      10.428   0.936   1.994  1.00  0.00     0.004 A 
ATOM     37  C   UNL     1      11.593  -1.155   1.955  1.00  0.00     0.004 A 
ATOM     38  C   UNL     1      11.273   1.387   2.991  1.00  0.00     0.000 A 
ATOM     39  C   UNL     1      12.437  -0.704   2.952  1.00  0.00     0.000 A 
ATOM     40  C   UNL     1      12.277   0.567   3.470  1.00  0.00     0.000 A 
ENDBRANCH  34  35
ENDBRANCH  33  34
ENDBRANCH   3  33
BRANCH   4  41
ATOM     41  O   UNL     1       6.640   0.183  -0.313  1.00  0.00    -0.508 OA
ATOM     42  H   UNL     1       7.571   0.498  -0.431  1.00  0.00     0.293 HD
ENDBRANCH   4  41
TORSDOF 11
