REMARK SMILES Cc1ccc(C[N@H+]2CCN(C(=S)NCC(=O)NCc3ccc4c(c3)OCO4)CC23CCCCC3)cc1
REMARK SMILES IDX 13 1 11 3 12 4 10 5 7 6 8 7 29 8 9 10 28 11 34 12 30 13
REMARK SMILES IDX 33 14 31 15 32 16 6 17 5 18 1 19 2 20 36 21 3 22 35 23 4 24
REMARK SMILES IDX 14 25 15 26 16 27 17 28 18 30 19 31 24 32 20 33 23 34 21 35
REMARK SMILES IDX 22 36 25 37 27 38 26 39
REMARK H PARENT 13 2 7 9 17 29
REMARK Flexibility Score: inf
ROOT
ATOM      1  N   UNL     1      10.508  -2.420  -1.047  1.00  0.00    -0.353 N 
ATOM      2  H   UNL     1      11.300  -2.707  -1.639  1.00  0.00     0.163 HD
ENDROOT
BRANCH   1   3
ATOM      3  C   UNL     1      10.708  -2.140   0.256  1.00  0.00     0.169 C 
ATOM      4  S   UNL     1       9.419  -1.541   1.210  1.00  0.00    -0.041 S 
BRANCH   3   5
ATOM      5  N   UNL     1      11.922  -2.334   0.808  1.00  0.00    -0.337 N 
ATOM      6  N   UNL     1      14.497  -1.780   1.728  1.00  0.00    -0.323 N 
ATOM      7  C   UNL     1      13.335  -1.216   2.450  1.00  0.00     0.284 C 
ATOM      8  C   UNL     1      14.236  -1.786   0.273  1.00  0.00     0.116 C 
ATOM      9  H   UNL     1      14.647  -2.748   2.044  1.00  0.00     0.348 HD
ATOM     10  C   UNL     1      12.135  -2.139   2.251  1.00  0.00     0.180 C 
ATOM     11  C   UNL     1      13.071  -2.739  -0.016  1.00  0.00     0.187 C 
ATOM     12  C   UNL     1      15.487  -2.280  -0.457  1.00  0.00     0.070 C 
ATOM     13  C   UNL     1      13.878  -0.383  -0.219  1.00  0.00     0.070 C 
ATOM     14  C   UNL     1      15.216  -2.320  -1.962  1.00  0.00     0.007 C 
ATOM     15  C   UNL     1      13.607  -0.423  -1.724  1.00  0.00     0.007 C 
ATOM     16  C   UNL     1      14.858  -0.916  -2.454  1.00  0.00     0.001 C 
BRANCH   6  17
ATOM     17  C   UNL     1      15.707  -0.984   2.020  1.00  0.00     0.299 C 
BRANCH  17  18
ATOM     18  C   UNL     1      15.804  -0.761   3.507  1.00  0.00     0.006 A 
ATOM     19  C   UNL     1      16.079  -0.126   7.722  1.00  0.00     0.044 C 
ATOM     20  C   UNL     1      15.982  -0.350   6.235  1.00  0.00    -0.051 A 
ATOM     21  C   UNL     1      15.323   0.568   5.440  1.00  0.00     0.004 A 
ATOM     22  C   UNL     1      16.553  -1.473   5.667  1.00  0.00     0.004 A 
ATOM     23  C   UNL     1      15.238   0.365   4.075  1.00  0.00     0.010 A 
ATOM     24  C   UNL     1      16.464  -1.679   4.302  1.00  0.00     0.010 A 
ENDBRANCH  17  18
ENDBRANCH   6  17
ENDBRANCH   3   5
ENDBRANCH   1   3
BRANCH   1  25
ATOM     25  C   UNL     1       9.165  -2.314  -1.622  1.00  0.00     0.215 C 
BRANCH  25  26
ATOM     26  C   UNL     1       9.213  -2.677  -3.083  1.00  0.00     0.239 C 
ATOM     27  O   UNL     1      10.267  -2.992  -3.595  1.00  0.00    -0.273 OA
ATOM     28  N   UNL     1       8.086  -2.651  -3.822  1.00  0.00    -0.350 N 
ATOM     29  H   UNL     1       7.192  -2.383  -3.388  1.00  0.00     0.163 HD
BRANCH  28  30
ATOM     30  C   UNL     1       8.134  -3.003  -5.244  1.00  0.00     0.151 C 
BRANCH  30  31
ATOM     31  C   UNL     1       6.752  -2.895  -5.834  1.00  0.00    -0.025 A 
ATOM     32  C   UNL     1       5.911  -3.992  -5.828  1.00  0.00     0.056 A 
ATOM     33  C   UNL     1       6.328  -1.698  -6.382  1.00  0.00     0.009 A 
ATOM     34  C   UNL     1       4.640  -3.894  -6.370  1.00  0.00     0.166 A 
ATOM     35  C   UNL     1       5.061  -1.594  -6.925  1.00  0.00     0.051 A 
ATOM     36  C   UNL     1       4.212  -2.689  -6.921  1.00  0.00     0.165 A 
ATOM     37  O   UNL     1       3.633  -4.809  -6.487  1.00  0.00    -0.454 OA
ATOM     38  O   UNL     1       2.938  -2.848  -7.384  1.00  0.00    -0.454 OA
ATOM     39  C   UNL     1       2.739  -4.271  -7.479  1.00  0.00     0.468 C 
ENDBRANCH  30  31
ENDBRANCH  28  30
ENDBRANCH  25  26
ENDBRANCH   1  25
TORSDOF 8
