REMARK SMILES NC(=O)N[C@H](CC(=O)OCC(=O)N(CCc1ccccc1)Cc1ccccc1)c1ccccc1Cl
REMARK SMILES IDX 10 1 11 2 12 3 13 4 14 5 15 6 16 7 19 8 20 9 18 10 21 11
REMARK SMILES IDX 17 12 22 13 23 14 28 15 24 16 27 17 25 18 26 19 9 20 7 21
REMARK SMILES IDX 8 22 6 23 5 24 29 25 34 26 30 27 33 28 35 29 31 30 32 31
REMARK SMILES IDX 4 32 2 33 3 35 1 36
REMARK H PARENT 4 34 1 37 1 38
REMARK Flexibility Score: inf
ROOT
ATOM      1  C   UNL     1       0.098  -0.340  -0.395  1.00  0.00     0.332 C 
ENDROOT
BRANCH   1   2
ATOM      2  C   UNL     1      -1.292  -0.922  -0.397  1.00  0.00     0.260 C 
ATOM      3  O   UNL     1      -2.251  -0.203  -0.211  1.00  0.00    -0.271 OA
BRANCH   2   4
ATOM      4  N   UNL     1      -1.470  -2.241  -0.606  1.00  0.00    -0.335 N 
BRANCH   4   5
ATOM      5  C   UNL     1      -2.824  -2.790  -0.715  1.00  0.00     0.124 C 
BRANCH   5   6
ATOM      6  C   UNL     1      -3.272  -2.758  -2.177  1.00  0.00     0.057 C 
BRANCH   6   7
ATOM      7  C   UNL     1      -4.665  -3.322  -2.288  1.00  0.00    -0.046 A 
ATOM      8  C   UNL     1      -7.220  -4.357  -2.493  1.00  0.00     0.000 A 
ATOM      9  C   UNL     1      -6.125  -5.193  -2.606  1.00  0.00     0.000 A 
ATOM     10  C   UNL     1      -7.038  -3.004  -2.279  1.00  0.00     0.000 A 
ATOM     11  C   UNL     1      -4.847  -4.674  -2.509  1.00  0.00     0.004 A 
ATOM     12  C   UNL     1      -5.760  -2.486  -2.176  1.00  0.00     0.004 A 
ENDBRANCH   6   7
ENDBRANCH   5   6
ENDBRANCH   4   5
BRANCH   4  13
ATOM     13  C   UNL     1      -0.309  -3.127  -0.725  1.00  0.00     0.155 C 
BRANCH  13  14
ATOM     14  C   UNL     1      -0.018  -3.756   0.613  1.00  0.00    -0.029 A 
ATOM     15  C   UNL     1      -0.694  -4.898   1.001  1.00  0.00     0.005 A 
ATOM     16  C   UNL     1       0.929  -3.195   1.449  1.00  0.00     0.005 A 
ATOM     17  C   UNL     1      -0.427  -5.476   2.228  1.00  0.00     0.000 A 
ATOM     18  C   UNL     1       1.192  -3.770   2.678  1.00  0.00     0.000 A 
ATOM     19  C   UNL     1       0.516  -4.911   3.067  1.00  0.00     0.000 A 
ENDBRANCH  13  14
ENDBRANCH   4  13
ENDBRANCH   2   4
ENDBRANCH   1   2
BRANCH   1  20
ATOM     20  O   UNL     1       0.018   1.105  -0.272  1.00  0.00    -0.455 OA
BRANCH  20  21
ATOM     21  C   UNL     1       1.178   1.780  -0.254  1.00  0.00     0.308 C 
ATOM     22  O   UNL     1       2.225   1.184  -0.338  1.00  0.00    -0.252 OA
BRANCH  21  23
ATOM     23  C   UNL     1       1.174   3.282  -0.129  1.00  0.00     0.152 C 
BRANCH  23  24
ATOM     24  C   UNL     1       2.614   3.798  -0.134  1.00  0.00     0.126 C 
BRANCH  24  25
ATOM     25  C   UNL     1       2.615   5.285   0.114  1.00  0.00    -0.006 A 
ATOM     26  C   UNL     1       3.792   5.928   0.456  1.00  0.00     0.046 A 
ATOM     27  C   UNL     1       1.440   6.005   0.006  1.00  0.00     0.007 A 
ATOM     28  C   UNL     1       3.793   7.294   0.678  1.00  0.00     0.021 A 
ATOM     29  Cl  UNL     1       5.266   5.023   0.599  1.00  0.00    -0.084 Cl
ATOM     30  C   UNL     1       1.442   7.368   0.233  1.00  0.00     0.000 A 
ATOM     31  C   UNL     1       2.618   8.012   0.569  1.00  0.00     0.002 A 
ENDBRANCH  24  25
BRANCH  24  32
ATOM     32  N   UNL     1       3.228   3.519  -1.434  1.00  0.00    -0.331 N 
ATOM     33  C   UNL     1       2.742   4.102  -2.548  1.00  0.00     0.312 C 
ATOM     34  H   UNL     1       4.032   2.878  -1.497  1.00  0.00     0.166 HD
ATOM     35  O   UNL     1       1.853   4.927  -2.464  1.00  0.00    -0.249 OA
ATOM     36  N   UNL     1       3.241   3.769  -3.755  1.00  0.00    -0.352 N 
ATOM     37  H   UNL     1       3.995   3.071  -3.826  1.00  0.00     0.161 HD
ATOM     38  H   UNL     1       2.870   4.215  -4.606  1.00  0.00     0.161 HD
ENDBRANCH  24  32
ENDBRANCH  23  24
ENDBRANCH  21  23
ENDBRANCH  20  21
ENDBRANCH   1  20
TORSDOF 13
