REMARK SMILES C[C@H]1Cc2ccccc2N1C(=O)CSc1nnc2c3c4c(sc3nc(C3CC3)n12)CCCC4
REMARK SMILES IDX 13 1 11 2 12 3 10 4 1 5 2 6 3 7 9 8 4 9 8 10 5 11 7 12 6 13
REMARK SMILES IDX 14 14 15 15 29 16 16 17 18 18 25 19 17 20 19 21 24 22 23 23
REMARK SMILES IDX 20 24 22 25 33 26 21 27 32 28 30 29 31 30 26 31 28 32 27 33
REMARK H PARENT
REMARK Flexibility Score: inf
ROOT
ATOM      1  C   UNL     1       5.164   2.969  -2.127  1.00  0.00     0.178 C 
ENDROOT
BRANCH   1   2
ATOM      2  C   UNL     1       4.908   3.253  -3.585  1.00  0.00     0.237 C 
ATOM      3  O   UNL     1       3.849   2.941  -4.086  1.00  0.00    -0.274 OA
BRANCH   2   4
ATOM      4  N   UNL     1       5.856   3.853  -4.331  1.00  0.00    -0.308 N 
ATOM      5  C   UNL     1       4.564   5.143  -5.977  1.00  0.00     0.032 C 
ATOM      6  C   UNL     1       5.726   4.173  -5.755  1.00  0.00     0.092 C 
ATOM      7  C   UNL     1       7.056   4.842  -6.141  1.00  0.00     0.063 C 
ATOM      8  C   UNL     1       7.111   4.255  -3.862  1.00  0.00     0.047 A 
ATOM      9  C   UNL     1       7.867   4.841  -4.864  1.00  0.00    -0.022 A 
ATOM     10  C   UNL     1       7.655   4.140  -2.581  1.00  0.00     0.026 A 
ATOM     11  C   UNL     1       9.141   5.306  -4.600  1.00  0.00     0.006 A 
ATOM     12  C   UNL     1       8.927   4.604  -2.322  1.00  0.00     0.002 A 
ATOM     13  C   UNL     1       9.673   5.188  -3.329  1.00  0.00     0.000 A 
ENDBRANCH   2   4
ENDBRANCH   1   2
BRANCH   1  14
ATOM     14  S   UNL     1       3.709   2.162  -1.403  1.00  0.00    -0.076 SA
BRANCH  14  15
ATOM     15  C   UNL     1       4.160   1.900   0.280  1.00  0.00     0.197 A 
ATOM     16  N   UNL     1       3.388   1.316   1.245  1.00  0.00    -0.257 N 
ATOM     17  N   UNL     1       5.301   2.231   0.841  1.00  0.00    -0.122 NA
ATOM     18  C   UNL     1       4.157   1.333   2.389  1.00  0.00     0.173 A 
ATOM     19  C   UNL     1       2.132   0.783   1.261  1.00  0.00     0.121 A 
ATOM     20  N   UNL     1       5.300   1.896   2.085  1.00  0.00    -0.129 NA
ATOM     21  C   UNL     1       3.589   0.760   3.629  1.00  0.00     0.060 A 
ATOM     22  N   UNL     1       1.621   0.282   2.349  1.00  0.00    -0.223 NA
ATOM     23  C   UNL     1       2.289   0.248   3.499  1.00  0.00     0.129 A 
ATOM     24  C   UNL     1       4.187   0.666   4.911  1.00  0.00    -0.021 A 
ATOM     25  S   UNL     1       1.926  -0.345   5.133  1.00  0.00    -0.120 S 
ATOM     26  C   UNL     1       5.596   1.185   5.185  1.00  0.00     0.037 C 
ATOM     27  C   UNL     1       3.463   0.094   5.901  1.00  0.00     0.011 A 
ATOM     28  C   UNL     1       5.770   1.369   6.693  1.00  0.00     0.005 C 
ATOM     29  C   UNL     1       3.874  -0.118   7.325  1.00  0.00     0.047 C 
ATOM     30  C   UNL     1       5.394   0.077   7.423  1.00  0.00     0.006 C 
BRANCH  19  31
ATOM     31  C   UNL     1       1.317   0.779  -0.006  1.00  0.00     0.056 C 
ATOM     32  C   UNL     1       0.002  -0.004   0.002  1.00  0.00     0.012 C 
ATOM     33  C   UNL     1      -0.019   1.526   0.010  1.00  0.00     0.012 C 
ENDBRANCH  19  31
ENDBRANCH  14  15
ENDBRANCH   1  14
TORSDOF 5
