REMARK SMILES CC(C)(C)c1ccc([C@]2(C)[N-]C(=O)N(C[C@@H](O)COC(c3ccccc3)c3ccccc3)C2=O)cc1
REMARK SMILES IDX 16 1 15 2 14 3 10 4 9 5 11 6 33 7 12 8 34 9 13 10 8 11 35 12
REMARK SMILES IDX 7 13 36 14 6 15 5 16 2 17 1 18 3 19 4 20 18 21 19 22 20 23
REMARK SMILES IDX 21 24 26 25 22 26 25 27 23 28 24 29 27 30 32 31 28 32 31 33
REMARK SMILES IDX 29 34 30 35 17 36
REMARK H PARENT 17 37
REMARK Flexibility Score: inf
ROOT
ATOM      1  C   UNL     1      -2.338   1.250   2.918  1.00  0.00     0.140 C 
ENDROOT
BRANCH   1   2
ATOM      2  C   UNL     1      -3.503   0.361   3.360  1.00  0.00     0.046 C 
BRANCH   2   3
ATOM      3  N   UNL     1      -4.195   0.988   4.488  1.00  0.00    -0.379 N 
ATOM      4  C   UNL     1      -7.056   1.804   6.073  1.00  0.00     0.024 C 
ATOM      5  C   UNL     1      -5.617   2.230   5.775  1.00  0.00     0.059 C 
ATOM      6  N   UNL     1      -4.669   1.475   6.613  1.00  0.00    -0.413 NA
ATOM      7  C   UNL     1      -5.228   1.845   4.361  1.00  0.00     0.159 C 
ATOM      8  C   UNL     1      -3.884   0.777   5.772  1.00  0.00     0.162 C 
ATOM      9  O   UNL     1      -5.739   2.228   3.331  1.00  0.00    -0.298 OA
ATOM     10  O   UNL     1      -2.989   0.040   6.138  1.00  0.00    -0.298 OA
BRANCH   5  11
ATOM     11  C   UNL     1      -5.447   3.712   5.986  1.00  0.00    -0.035 A 
ATOM     12  C   UNL     1      -5.133   4.200   7.241  1.00  0.00     0.005 A 
ATOM     13  C   UNL     1      -5.599   4.584   4.924  1.00  0.00     0.005 A 
ATOM     14  C   UNL     1      -4.977   5.560   7.434  1.00  0.00     0.004 A 
ATOM     15  C   UNL     1      -5.448   5.944   5.119  1.00  0.00     0.004 A 
ATOM     16  C   UNL     1      -5.134   6.432   6.373  1.00  0.00    -0.043 A 
BRANCH  16  17
ATOM     17  C   UNL     1      -4.964   7.914   6.585  1.00  0.00    -0.013 C 
ATOM     18  C   UNL     1      -3.547   8.198   7.089  1.00  0.00     0.016 C 
ATOM     19  C   UNL     1      -5.190   8.647   5.261  1.00  0.00     0.016 C 
ATOM     20  C   UNL     1      -5.980   8.403   7.618  1.00  0.00     0.016 C 
ENDBRANCH  16  17
ENDBRANCH   5  11
ENDBRANCH   2   3
ENDBRANCH   1   2
BRANCH   1  21
ATOM     21  C   UNL     1      -1.693   0.658   1.663  1.00  0.00     0.193 C 
BRANCH  21  22
ATOM     22  O   UNL     1      -0.682   1.547   1.184  1.00  0.00    -0.366 OA
BRANCH  22  23
ATOM     23  C   UNL     1      -0.013   1.086   0.008  1.00  0.00     0.178 C 
BRANCH  23  24
ATOM     24  C   UNL     1       1.401   1.607  -0.003  1.00  0.00    -0.015 A 
ATOM     25  C   UNL     1       2.420   0.832  -0.523  1.00  0.00     0.007 A 
ATOM     26  C   UNL     1       1.678   2.864   0.502  1.00  0.00     0.007 A 
ATOM     27  C   UNL     1       3.717   1.310  -0.533  1.00  0.00     0.000 A 
ATOM     28  C   UNL     1       2.976   3.341   0.497  1.00  0.00     0.000 A 
ATOM     29  C   UNL     1       3.995   2.565  -0.023  1.00  0.00     0.000 A 
ENDBRANCH  23  24
BRANCH  23  30
ATOM     30  C   UNL     1      -0.742   1.585  -1.213  1.00  0.00    -0.015 A 
ATOM     31  C   UNL     1      -0.899   0.759  -2.310  1.00  0.00     0.007 A 
ATOM     32  C   UNL     1      -1.257   2.868  -1.234  1.00  0.00     0.007 A 
ATOM     33  C   UNL     1      -1.568   1.216  -3.429  1.00  0.00     0.000 A 
ATOM     34  C   UNL     1      -1.922   3.327  -2.356  1.00  0.00     0.000 A 
ATOM     35  C   UNL     1      -2.079   2.501  -3.452  1.00  0.00     0.000 A 
ENDBRANCH  23  30
ENDBRANCH  22  23
ENDBRANCH  21  22
ENDBRANCH   1  21
BRANCH   1  36
ATOM     36  O   UNL     1      -1.368   1.319   3.965  1.00  0.00    -0.391 OA
ATOM     37  H   UNL     1      -1.032   0.410   4.165  1.00  0.00     0.211 HD
ENDBRANCH   1  36
TORSDOF 10
