REMARK SMILES C[C@H](NC(=O)[C@H](Cc1ccccc1)NC(=O)OCC1c2ccccc2-c2ccccc21)c1ccc(O)cc1
REMARK SMILES IDX 6 1 4 2 3 3 5 5 2 6 1 7 32 8 38 9 33 10 37 11 34 12 35 13
REMARK SMILES IDX 36 14 7 16 8 17 13 18 9 19 12 20 10 21 11 22 14 23 15 24
REMARK SMILES IDX 16 26 17 27 18 28 19 29 31 30 20 31 26 32 30 33 25 34 21 35
REMARK SMILES IDX 27 36 29 37 24 38 22 39 28 40 23 41
REMARK H PARENT 3 4 36 15 14 25
REMARK Flexibility Score: inf
ROOT
ATOM      1  C   UNL     1      -4.529   7.063   3.420  1.00  0.00     0.179 C 
ENDROOT
BRANCH   1   2
ATOM      2  C   UNL     1      -5.898   6.440   3.516  1.00  0.00     0.243 C 
ATOM      3  N   UNL     1      -6.745   6.823   4.492  1.00  0.00    -0.348 N 
ATOM      4  H   UNL     1      -6.457   7.541   5.172  1.00  0.00     0.164 HD
ATOM      5  O   UNL     1      -6.237   5.595   2.716  1.00  0.00    -0.273 OA
BRANCH   3   6
ATOM      6  C   UNL     1      -8.076   6.217   4.586  1.00  0.00     0.109 C 
ATOM      7  C   UNL     1      -7.987   4.911   5.377  1.00  0.00     0.036 C 
BRANCH   6   8
ATOM      8  C   UNL     1      -9.012   7.167   5.288  1.00  0.00    -0.026 A 
ATOM      9  C   UNL     1     -10.313   7.309   4.843  1.00  0.00     0.009 A 
ATOM     10  C   UNL     1      -8.569   7.891   6.380  1.00  0.00     0.009 A 
ATOM     11  C   UNL     1     -11.173   8.179   5.486  1.00  0.00     0.046 A 
ATOM     12  C   UNL     1      -9.423   8.767   7.022  1.00  0.00     0.046 A 
ATOM     13  C   UNL     1     -10.729   8.911   6.578  1.00  0.00     0.115 A 
BRANCH  13  14
ATOM     14  O   UNL     1     -11.573   9.767   7.212  1.00  0.00    -0.508 OA
ATOM     15  H   UNL     1     -11.115  10.644   7.184  1.00  0.00     0.293 HD
ENDBRANCH  13  14
ENDBRANCH   6   8
ENDBRANCH   3   6
ENDBRANCH   1   2
BRANCH   1  16
ATOM     16  C   UNL     1      -4.668   8.573   3.217  1.00  0.00     0.070 C 
BRANCH  16  17
ATOM     17  C   UNL     1      -3.304   9.212   3.244  1.00  0.00    -0.045 A 
ATOM     18  C   UNL     1      -2.584   9.354   2.072  1.00  0.00     0.004 A 
ATOM     19  C   UNL     1      -2.774   9.660   4.440  1.00  0.00     0.004 A 
ATOM     20  C   UNL     1      -1.333   9.941   2.097  1.00  0.00     0.000 A 
ATOM     21  C   UNL     1      -1.520  10.241   4.465  1.00  0.00     0.000 A 
ATOM     22  C   UNL     1      -0.800  10.384   3.293  1.00  0.00     0.000 A 
ENDBRANCH  16  17
ENDBRANCH   1  16
BRANCH   1  23
ATOM     23  N   UNL     1      -3.807   6.482   2.285  1.00  0.00    -0.309 N 
ATOM     24  C   UNL     1      -2.459   6.475   2.276  1.00  0.00     0.407 C 
ATOM     25  H   UNL     1      -4.330   6.080   1.494  1.00  0.00     0.167 HD
ATOM     26  O   UNL     1      -1.843   6.950   3.209  1.00  0.00    -0.225 OA
BRANCH  24  27
ATOM     27  O   UNL     1      -1.796   5.942   1.233  1.00  0.00    -0.449 OA
BRANCH  27  28
ATOM     28  C   UNL     1      -0.345   5.969   1.290  1.00  0.00     0.248 C 
BRANCH  28  29
ATOM     29  C   UNL     1       0.227   5.323   0.027  1.00  0.00     0.088 C 
ATOM     30  C   UNL     1       1.731   5.452   0.014  1.00  0.00    -0.029 A 
ATOM     31  C   UNL     1      -0.064   3.843   0.022  1.00  0.00    -0.029 A 
ATOM     32  C   UNL     1       2.262   4.166   0.002  1.00  0.00    -0.014 A 
ATOM     33  C   UNL     1       2.566   6.550   0.011  1.00  0.00     0.005 A 
ATOM     34  C   UNL     1       1.157   3.175   0.008  1.00  0.00    -0.014 A 
ATOM     35  C   UNL     1      -1.245   3.132   0.029  1.00  0.00     0.005 A 
ATOM     36  C   UNL     1       3.648   3.998  -0.012  1.00  0.00     0.009 A 
ATOM     37  C   UNL     1       3.938   6.376  -0.003  1.00  0.00     0.000 A 
ATOM     38  C   UNL     1       1.174   1.779   0.000  1.00  0.00     0.009 A 
ATOM     39  C   UNL     1      -1.221   1.748   0.017  1.00  0.00     0.000 A 
ATOM     40  C   UNL     1       4.476   5.101  -0.015  1.00  0.00     0.001 A 
ATOM     41  C   UNL     1      -0.013   1.076   0.008  1.00  0.00     0.001 A 
ENDBRANCH  28  29
ENDBRANCH  27  28
ENDBRANCH  24  27
ENDBRANCH   1  23
TORSDOF 10
