REMARK SMILES COc1ccc2[nH]c3c(c2c1)CC[NH2+][C@@H]3c1ccc(OC)c(CSc2nnc(-c3ccccc3)o2)c1
REMARK SMILES IDX 23 1 22 2 16 3 36 4 17 5 18 6 19 7 15 8 3 9 11 10 4 11 10 12
REMARK SMILES IDX 5 13 6 14 9 15 7 16 12 17 8 18 13 20 14 21 2 24 1 25 20 26
REMARK SMILES IDX 21 27 24 28 25 29 35 30 26 31 28 32 27 33 29 34 34 35 30 36
REMARK SMILES IDX 33 37 31 38 32 39
REMARK H PARENT 7 19 14 22 14 23
REMARK Flexibility Score: inf
ROOT
ATOM      1  C   UNL     1      -1.989   2.447   3.520  1.00  0.00     0.119 C 
ENDROOT
BRANCH   1   2
ATOM      2  C   UNL     1      -0.747   1.594   3.561  1.00  0.00     0.005 A 
ATOM      3  C   UNL     1       0.936   0.440   4.814  1.00  0.00     0.016 A 
ATOM      4  C   UNL     1      -0.203   1.222   4.776  1.00  0.00     0.018 A 
ATOM      5  C   UNL     1       1.534   0.028   3.637  1.00  0.00     0.014 A 
ATOM      6  C   UNL     1       0.991   0.392   2.421  1.00  0.00     0.047 A 
ATOM      7  C   UNL     1      -0.149   1.182   2.380  1.00  0.00     0.122 A 
BRANCH   3   8
ATOM      8  C   UNL     1       1.527   0.036   6.140  1.00  0.00     0.261 C 
ATOM      9  C   UNL     1       6.599   2.983   7.644  1.00  0.00     0.119 A 
ATOM     10  C   UNL     1       6.062   1.705   7.609  1.00  0.00     0.057 A 
ATOM     11  C   UNL     1       5.875   4.094   7.232  1.00  0.00     0.048 A 
ATOM     12  C   UNL     1       4.750   1.586   7.138  1.00  0.00     0.007 A 
ATOM     13  C   UNL     1       4.577   3.995   6.763  1.00  0.00     0.030 A 
ATOM     14  C   UNL     1       4.013   2.723   6.717  1.00  0.00     0.046 A 
ATOM     15  C   UNL     1       3.870   0.452   6.959  1.00  0.00    -0.007 A 
ATOM     16  N   UNL     1       2.781   2.283   6.316  1.00  0.00    -0.353 N 
ATOM     17  C   UNL     1       4.121  -1.007   7.246  1.00  0.00     0.099 C 
ATOM     18  C   UNL     1       2.704   0.925   6.463  1.00  0.00     0.083 A 
ATOM     19  H   UNL     1       2.025   2.884   5.958  1.00  0.00     0.166 HD
ATOM     20  C   UNL     1       2.766  -1.726   7.265  1.00  0.00     0.266 C 
ATOM     21  N   UNL     1       1.995  -1.358   6.069  1.00  0.00    -0.335 N 
ATOM     22  H   UNL     1       1.182  -1.984   5.984  1.00  0.00     0.347 HD
ATOM     23  H   UNL     1       2.588  -1.474   5.235  1.00  0.00     0.347 HD
BRANCH   9  24
ATOM     24  O   UNL     1       7.872   3.153   8.095  1.00  0.00    -0.497 OA
ATOM     25  C   UNL     1       8.381   4.488   8.111  1.00  0.00     0.278 C 
ENDBRANCH   9  24
ENDBRANCH   3   8
BRANCH   7  26
ATOM     26  O   UNL     1      -0.682   1.547   1.184  1.00  0.00    -0.496 OA
ATOM     27  C   UNL     1      -0.013   1.086   0.008  1.00  0.00     0.278 C 
ENDBRANCH   7  26
ENDBRANCH   1   2
BRANCH   1  28
ATOM     28  S   UNL     1      -3.452   1.381   3.506  1.00  0.00    -0.060 SA
BRANCH  28  29
ATOM     29  C   UNL     1      -4.720   2.603   3.458  1.00  0.00     0.277 A 
ATOM     30  O   UNL     1      -6.047   2.374   3.428  1.00  0.00    -0.411 OA
ATOM     31  N   UNL     1      -4.545   3.905   3.441  1.00  0.00    -0.101 NA
ATOM     32  C   UNL     1      -6.641   3.588   3.401  1.00  0.00     0.248 A 
ATOM     33  N   UNL     1      -5.690   4.490   3.406  1.00  0.00    -0.107 NA
BRANCH  32  34
ATOM     34  C   UNL     1      -8.095   3.849   3.366  1.00  0.00     0.039 A 
ATOM     35  C   UNL     1      -8.571   5.162   3.334  1.00  0.00     0.014 A 
ATOM     36  C   UNL     1      -8.999   2.785   3.359  1.00  0.00     0.014 A 
ATOM     37  C   UNL     1      -9.929   5.399   3.302  1.00  0.00     0.001 A 
ATOM     38  C   UNL     1     -10.355   3.037   3.333  1.00  0.00     0.001 A 
ATOM     39  C   UNL     1     -10.820   4.340   3.301  1.00  0.00     0.000 A 
ENDBRANCH  32  34
ENDBRANCH  28  29
ENDBRANCH   1  28
TORSDOF 7
