REMARK SMILES N#Cc1c(N2CCCCC2)nc(N)c2c(N)nc3c(c12)C(=O)CN3Cc1ccco1
REMARK SMILES IDX 24 1 23 2 21 3 22 4 19 5 18 6 15 7 14 8 20 9 3 10 4 11 11 12
REMARK SMILES IDX 12 13 17 14 25 15 26 16 28 17 29 18 27 19 30 20 16 21 2 24
REMARK SMILES IDX 1 25 13 26 5 29 10 30 6 31 9 32 7 33 8 34
REMARK H PARENT 16 22 16 23 13 27 13 28
REMARK Flexibility Score: inf
ROOT
ATOM      1  N   UNL     1      -2.624   4.754   1.653  1.00  0.00    -0.341 N 
ATOM      2  C   UNL     1      -3.976   5.185   1.266  1.00  0.00     0.199 C 
ATOM      3  C   UNL     1      -4.613   3.971   0.629  1.00  0.00     0.186 C 
ATOM      4  O   UNL     1      -5.734   3.891   0.167  1.00  0.00    -0.292 OA
ATOM      5  C   UNL     1      -3.640   2.949   0.679  1.00  0.00     0.072 A 
ATOM      6  C   UNL     1      -2.468   3.432   1.289  1.00  0.00     0.143 A 
ATOM      7  C   UNL     1      -1.385   1.370   1.048  1.00  0.00     0.137 A 
ATOM      8  C   UNL     1      -2.500   0.776   0.424  1.00  0.00     0.069 A 
ATOM      9  C   UNL     1      -3.661   1.561   0.225  1.00  0.00     0.025 A 
ATOM     10  C   UNL     1      -4.779   0.972  -0.399  1.00  0.00     0.104 A 
ATOM     11  C   UNL     1      -4.686  -0.373  -0.795  1.00  0.00     0.149 A 
ATOM     12  N   UNL     1      -3.579  -1.074  -0.590  1.00  0.00    -0.212 NA
ATOM     13  C   UNL     1      -2.505  -0.564  -0.008  1.00  0.00     0.137 A 
ATOM     14  N   UNL     1      -1.339   2.663   1.488  1.00  0.00    -0.213 NA
ENDROOT
BRANCH   1  15
ATOM     15  C   UNL     1      -1.601   5.598   1.020  1.00  0.00     0.194 C 
BRANCH  15  16
ATOM     16  C   UNL     1      -1.637   6.974   1.632  1.00  0.00     0.123 A 
ATOM     17  C   UNL     1      -1.269   8.732   2.930  1.00  0.00     0.042 A 
ATOM     18  C   UNL     1      -2.160   9.075   1.983  1.00  0.00     0.195 A 
ATOM     19  C   UNL     1      -0.931   7.378   2.704  1.00  0.00     0.047 A 
ATOM     20  O   UNL     1      -2.375   8.008   1.196  1.00  0.00    -0.467 OA
ENDBRANCH  15  16
ENDBRANCH   1  15
BRANCH   7  21
ATOM     21  N   UNL     1      -0.247   0.624   1.251  1.00  0.00    -0.383 N 
ATOM     22  H   UNL     1      -0.208  -0.360   0.951  1.00  0.00     0.158 HD
ATOM     23  H   UNL     1       0.571   1.054   1.707  1.00  0.00     0.158 HD
ENDBRANCH   7  21
BRANCH  10  24
ATOM     24  C   UNL     1      -5.977   1.724  -0.623  1.00  0.00     0.104 C 
ATOM     25  N   UNL     1      -6.928   2.321  -0.801  1.00  0.00    -0.192 NA
ENDBRANCH  10  24
BRANCH  13  26
ATOM     26  N   UNL     1      -1.386  -1.348   0.175  1.00  0.00    -0.383 N 
ATOM     27  H   UNL     1      -0.548  -0.955   0.627  1.00  0.00     0.158 HD
ATOM     28  H   UNL     1      -1.388  -2.329  -0.141  1.00  0.00     0.158 HD
ENDBRANCH  13  26
BRANCH  11  29
ATOM     29  N   UNL     1      -5.766  -0.976  -1.409  1.00  0.00    -0.355 N 
ATOM     30  C   UNL     1      -5.448  -1.340  -2.795  1.00  0.00     0.118 C 
ATOM     31  C   UNL     1      -6.222  -2.144  -0.644  1.00  0.00     0.118 C 
ATOM     32  C   UNL     1      -6.707  -1.870  -3.487  1.00  0.00     0.022 C 
ATOM     33  C   UNL     1      -7.504  -2.697  -1.271  1.00  0.00     0.022 C 
ATOM     34  C   UNL     1      -7.226  -3.092  -2.724  1.00  0.00     0.004 C 
ENDBRANCH  11  29
TORSDOF 6
