REMARK SMILES CCCc1n[nH]c2c1[C@@]1(C(=O)N(Cc3c(F)cccc3Cl)c3ccccc31)C(C(=O)OC)=C(N)O2
REMARK SMILES IDX 4 1 8 2 7 3 6 4 5 5 35 6 33 7 28 8 9 9 27 10 26 11 25 12
REMARK SMILES IDX 24 13 23 14 22 15 12 16 10 17 11 18 3 20 2 21 1 22 29 23
REMARK SMILES IDX 30 24 31 25 32 26 34 27 13 30 14 31 20 32 15 33 19 34 21 35
REMARK SMILES IDX 17 36 16 37 18 38
REMARK H PARENT 6 19 34 28 34 29
REMARK Flexibility Score: inf
ROOT
ATOM      1  C   UNL     1      -1.479   4.157  -0.388  1.00  0.00     0.071 A 
ATOM      2  C   UNL     1      -0.734   3.133   0.181  1.00  0.00     0.063 A 
ATOM      3  C   UNL     1       0.556   3.571   0.311  1.00  0.00     0.222 A 
ATOM      4  N   UNL     1       0.608   4.826  -0.162  1.00  0.00    -0.246 N 
ATOM      5  N   UNL     1      -0.680   5.176  -0.596  1.00  0.00    -0.177 NA
ATOM      6  O   UNL     1       1.540   2.800   0.837  1.00  0.00    -0.423 OA
ATOM      7  C   UNL     1       1.295   1.485   0.999  1.00  0.00     0.205 C 
ATOM      8  C   UNL     1       0.059   0.934   0.907  1.00  0.00     0.122 C 
ATOM      9  C   UNL     1      -1.163   1.759   0.607  1.00  0.00     0.146 C 
ATOM     10  C   UNL     1      -2.080   1.820   1.786  1.00  0.00     0.001 A 
ATOM     11  C   UNL     1      -1.900   2.311   3.062  1.00  0.00     0.008 A 
ATOM     12  C   UNL     1      -2.978   2.211   3.934  1.00  0.00     0.001 A 
ATOM     13  C   UNL     1      -4.174   1.646   3.538  1.00  0.00     0.002 A 
ATOM     14  C   UNL     1      -4.362   1.151   2.257  1.00  0.00     0.027 A 
ATOM     15  C   UNL     1      -3.288   1.245   1.371  1.00  0.00     0.049 A 
ATOM     16  N   UNL     1      -3.198   0.837   0.052  1.00  0.00    -0.306 N 
ATOM     17  C   UNL     1      -1.985   1.100  -0.478  1.00  0.00     0.247 C 
ATOM     18  O   UNL     1      -1.623   0.855  -1.609  1.00  0.00    -0.273 OA
ATOM     19  H   UNL     1       1.445   5.426  -0.200  1.00  0.00     0.193 HD
ENDROOT
BRANCH   1  20
ATOM     20  C   UNL     1      -2.951   4.107  -0.709  1.00  0.00     0.058 C 
BRANCH  20  21
ATOM     21  C   UNL     1      -3.741   4.788   0.410  1.00  0.00     0.003 C 
ATOM     22  C   UNL     1      -5.223   4.835   0.032  1.00  0.00     0.004 C 
ENDBRANCH  20  21
ENDBRANCH   1  20
BRANCH   8  23
ATOM     23  C   UNL     1      -0.084  -0.449   1.093  1.00  0.00     0.340 C 
ATOM     24  O   UNL     1      -0.527  -0.880   2.143  1.00  0.00    -0.246 OA
BRANCH  23  25
ATOM     25  O   UNL     1       0.269  -1.302   0.107  1.00  0.00    -0.465 OA
ATOM     26  C   UNL     1       0.096  -2.698   0.365  1.00  0.00     0.282 C 
ENDBRANCH  23  25
ENDBRANCH   8  23
BRANCH   7  27
ATOM     27  N   UNL     1       2.353   0.659   1.270  1.00  0.00    -0.369 N 
ATOM     28  H   UNL     1       3.312   1.026   1.350  1.00  0.00     0.159 HD
ATOM     29  H   UNL     1       2.182  -0.349   1.397  1.00  0.00     0.159 HD
ENDBRANCH   7  27
BRANCH  16  30
ATOM     30  C   UNL     1      -4.292   0.196  -0.683  1.00  0.00     0.166 C 
BRANCH  30  31
ATOM     31  C   UNL     1      -4.115  -1.300  -0.641  1.00  0.00     0.026 A 
ATOM     32  C   UNL     1      -3.470  -1.951  -1.677  1.00  0.00     0.048 A 
ATOM     33  C   UNL     1      -4.604  -2.026   0.433  1.00  0.00     0.129 A 
ATOM     34  C   UNL     1      -3.304  -3.324  -1.635  1.00  0.00     0.021 A 
ATOM     35  Cl  UNL     1      -2.863  -1.043  -3.026  1.00  0.00    -0.084 Cl
ATOM     36  C   UNL     1      -4.441  -3.400   0.470  1.00  0.00     0.040 A 
ATOM     37  F   UNL     1      -5.239  -1.392   1.443  1.00  0.00    -0.207 F 
ATOM     38  C   UNL     1      -3.791  -4.048  -0.563  1.00  0.00     0.005 A 
ENDBRANCH  30  31
ENDBRANCH  16  30
TORSDOF 7
