REMARK SMILES Cc1ccc(S(=O)(=O)[N-]N2C(=O)c3ccccc3N[C@H]2c2cc(Cl)cc(Cl)c2[O-])cc1
REMARK SMILES IDX 9 1 6 2 7 3 8 4 5 5 1 6 2 7 31 8 3 9 30 10 4 11 10 12 11 13
REMARK SMILES IDX 20 14 13 15 12 16 19 17 18 18 14 19 17 21 15 22 16 23 21 24
REMARK SMILES IDX 28 25 22 26 26 27 29 28 23 29 25 30 27 31 24 32
REMARK H PARENT 19 20
REMARK Flexibility Score: inf
ROOT
ATOM      1  N   UNL     1      -1.954   2.441   1.507  1.00  0.00    -0.446 NA
ENDROOT
BRANCH   1   2
ATOM      2  S   UNL     1      -3.289   1.749   2.201  1.00  0.00     0.115 S 
ATOM      3  O   UNL     1      -2.821   0.971   3.294  1.00  0.00    -0.243 OA
ATOM      4  O   UNL     1      -4.055   1.192   1.142  1.00  0.00    -0.243 OA
BRANCH   2   5
ATOM      5  C   UNL     1      -4.254   3.053   2.889  1.00  0.00     0.050 A 
ATOM      6  C   UNL     1      -6.607   6.202   4.561  1.00  0.00     0.044 C 
ATOM      7  C   UNL     1      -5.777   5.091   3.971  1.00  0.00    -0.051 A 
ATOM      8  C   UNL     1      -4.885   4.397   4.767  1.00  0.00     0.005 A 
ATOM      9  C   UNL     1      -5.907   4.766   2.634  1.00  0.00     0.005 A 
ATOM     10  C   UNL     1      -4.123   3.379   4.226  1.00  0.00     0.019 A 
ATOM     11  C   UNL     1      -5.146   3.747   2.093  1.00  0.00     0.019 A 
ENDBRANCH   2   5
ENDBRANCH   1   2
BRANCH   1  12
ATOM     12  N   UNL     1      -1.063   3.186   2.291  1.00  0.00    -0.402 N 
ATOM     13  C   UNL     1       0.017   2.578   2.823  1.00  0.00     0.241 C 
ATOM     14  C   UNL     1      -1.325   4.606   2.522  1.00  0.00     0.193 C 
ATOM     15  C   UNL     1       0.911   3.344   3.709  1.00  0.00     0.061 A 
ATOM     16  O   UNL     1       0.254   1.412   2.570  1.00  0.00    -0.270 OA
ATOM     17  N   UNL     1      -0.808   5.012   3.835  1.00  0.00    -0.362 N 
ATOM     18  C   UNL     1       0.457   4.576   4.213  1.00  0.00     0.049 A 
ATOM     19  C   UNL     1       2.175   2.876   4.061  1.00  0.00     0.016 A 
ATOM     20  H   UNL     1      -1.369   5.606   4.461  1.00  0.00     0.163 HD
ATOM     21  C   UNL     1       1.264   5.316   5.060  1.00  0.00     0.026 A 
ATOM     22  C   UNL     1       2.967   3.626   4.906  1.00  0.00     0.001 A 
ATOM     23  C   UNL     1       2.514   4.839   5.403  1.00  0.00     0.002 A 
BRANCH  14  24
ATOM     24  C   UNL     1      -0.651   5.419   1.447  1.00  0.00    -0.012 A 
ATOM     25  C   UNL     1      -0.356   6.755   1.670  1.00  0.00    -0.082 A 
ATOM     26  C   UNL     1      -0.331   4.834   0.236  1.00  0.00     0.027 A 
ATOM     27  C   UNL     1       0.271   7.501   0.681  1.00  0.00     0.035 A 
ATOM     28  O   UNL     1      -0.675   7.333   2.859  1.00  0.00    -0.871 OA
ATOM     29  C   UNL     1       0.288   5.580  -0.751  1.00  0.00     0.042 A 
ATOM     30  C   UNL     1       0.589   6.912  -0.529  1.00  0.00     0.040 A 
ATOM     31  Cl  UNL     1       0.647   9.172   0.959  1.00  0.00    -0.085 Cl
ATOM     32  Cl  UNL     1       0.689   4.843  -2.271  1.00  0.00    -0.084 Cl
ENDBRANCH  14  24
ENDBRANCH   1  12
TORSDOF 4
