REMARK SMILES Cc1cc/c(=N\CCC[C@H]2CCC[N@@H+]3CCCC[C@@H]23)c2c(O)c3cc(O)ccc3sc1-2
REMARK SMILES IDX 7 1 6 2 1 3 2 4 31 5 3 6 20 7 30 8 4 9 5 10 21 11 29 12
REMARK SMILES IDX 23 13 28 14 24 15 27 16 25 17 22 18 26 20 8 22 9 23 10 24
REMARK SMILES IDX 19 25 11 26 14 27 18 28 12 29 13 30 15 31 17 33 16 34
REMARK H PARENT 22 19 26 21 14 32
REMARK Flexibility Score: inf
ROOT
ATOM      1  C   UNL     1      -2.057  -0.212   3.827  1.00  0.00     0.143 C 
ENDROOT
BRANCH   1   2
ATOM      2  N   UNL     1      -3.348  -0.898   3.932  1.00  0.00    -0.285 NA
ATOM      3  C   UNL     1      -6.751   0.225   8.351  1.00  0.00     0.046 C 
ATOM      4  C   UNL     1      -5.855  -0.077   7.178  1.00  0.00    -0.033 A 
ATOM      5  C   UNL     1      -6.306  -0.871   6.146  1.00  0.00     0.044 A 
ATOM      6  C   UNL     1      -4.573   0.443   7.128  1.00  0.00     0.007 A 
ATOM      7  C   UNL     1      -5.496  -1.170   5.029  1.00  0.00     0.060 A 
ATOM      8  S   UNL     1      -7.937  -1.570   6.143  1.00  0.00    -0.135 S 
ATOM      9  C   UNL     1      -3.753   0.164   6.048  1.00  0.00     0.029 A 
ATOM     10  C   UNL     1      -4.190  -0.632   5.005  1.00  0.00     0.070 A 
ATOM     11  C   UNL     1      -5.955  -2.010   3.937  1.00  0.00     0.135 A 
ATOM     12  C   UNL     1      -8.283  -2.556   4.708  1.00  0.00     0.039 A 
ATOM     13  C   UNL     1      -7.245  -2.665   3.761  1.00  0.00     0.038 A 
ATOM     14  C   UNL     1      -9.500  -3.180   4.529  1.00  0.00     0.023 A 
ATOM     15  C   UNL     1      -7.487  -3.438   2.612  1.00  0.00     0.059 A 
ATOM     16  C   UNL     1      -9.715  -3.934   3.392  1.00  0.00     0.047 A 
ATOM     17  C   UNL     1      -8.706  -4.058   2.441  1.00  0.00     0.116 A 
BRANCH  11  18
ATOM     18  O   UNL     1      -5.150  -2.189   3.040  1.00  0.00    -0.507 OA
ATOM     19  H   UNL     1      -4.345  -2.589   3.454  1.00  0.00     0.293 HD
ENDBRANCH  11  18
BRANCH  17  20
ATOM     20  O   UNL     1      -8.926  -4.802   1.325  1.00  0.00    -0.508 OA
ATOM     21  H   UNL     1      -9.731  -4.407   0.905  1.00  0.00     0.293 HD
ENDBRANCH  17  20
ENDBRANCH   1   2
BRANCH   1  22
ATOM     22  C   UNL     1      -1.332  -0.681   2.564  1.00  0.00     0.024 C 
BRANCH  22  23
ATOM     23  C   UNL     1       0.016   0.035   2.454  1.00  0.00     0.011 C 
BRANCH  23  24
ATOM     24  C   UNL     1       0.741  -0.434   1.191  1.00  0.00     0.048 C 
ATOM     25  C   UNL     1       2.144   0.180   1.152  1.00  0.00     0.187 C 
ATOM     26  C   UNL     1      -0.052   0.002  -0.042  1.00  0.00     0.015 C 
ATOM     27  N   UNL     1       2.051   1.643   1.086  1.00  0.00    -0.332 N 
ATOM     28  C   UNL     1       2.885  -0.245   2.424  1.00  0.00     0.065 C 
ATOM     29  C   UNL     1      -0.116   1.533  -0.067  1.00  0.00     0.062 C 
ATOM     30  C   UNL     1       1.308   2.086  -0.101  1.00  0.00     0.262 C 
ATOM     31  C   UNL     1       3.382   2.269   1.093  1.00  0.00     0.262 C 
ATOM     32  H   UNL     1       1.538   1.941   1.928  1.00  0.00     0.348 HD
ATOM     33  C   UNL     1       4.279   0.384   2.448  1.00  0.00     0.012 C 
ATOM     34  C   UNL     1       4.131   1.908   2.375  1.00  0.00     0.062 C 
ENDBRANCH  23  24
ENDBRANCH  22  23
ENDBRANCH   1  22
TORSDOF 6
