REMARK SMILES Cc1cccc(NC(=O)c2cccc([N-]C(=S)NC(=O)Cc3cccc4ccccc34)c2)c1
REMARK SMILES IDX 16 1 17 2 15 3 14 4 10 5 32 6 11 7 12 8 13 9 8 10 7 11 9 13
REMARK SMILES IDX 6 14 1 15 2 16 33 17 3 18 4 19 5 20 18 21 19 22 20 24 21 25
REMARK SMILES IDX 22 26 31 27 23 28 26 29 30 30 24 31 25 32 27 33 29 34 28 35
REMARK H PARENT 7 12 18 23
REMARK Flexibility Score: inf
ROOT
ATOM      1  C   UNL     1       3.722  11.165  -0.109  1.00  0.00     0.009 C 
ATOM      2  S   UNL     1       2.288  12.094   0.003  1.00  0.00    -0.090 S 
ENDROOT
BRANCH   1   3
ATOM      3  N   UNL     1       3.648   9.826  -0.241  1.00  0.00    -0.427 NA
BRANCH   3   4
ATOM      4  C   UNL     1       2.405   9.186  -0.196  1.00  0.00    -0.040 A 
ATOM      5  C   UNL     1       0.102   9.048  -0.875  1.00  0.00     0.040 A 
ATOM      6  C   UNL     1       1.340   9.687  -0.928  1.00  0.00     0.017 A 
ATOM      7  C   UNL     1      -0.054   7.901  -0.094  1.00  0.00     0.014 A 
ATOM      8  C   UNL     1       1.014   7.407   0.627  1.00  0.00     0.001 A 
ATOM      9  C   UNL     1       2.240   8.044   0.579  1.00  0.00     0.004 A 
BRANCH   5  10
ATOM     10  C   UNL     1      -1.041   9.579  -1.649  1.00  0.00     0.255 C 
ATOM     11  N   UNL     1      -2.235   8.956  -1.601  1.00  0.00    -0.322 N 
ATOM     12  H   UNL     1      -2.381   8.172  -0.949  1.00  0.00     0.170 HD
ATOM     13  O   UNL     1      -0.903  10.578  -2.328  1.00  0.00    -0.269 OA
BRANCH  11  14
ATOM     14  C   UNL     1      -3.276   9.375  -2.436  1.00  0.00     0.041 A 
ATOM     15  C   UNL     1      -3.733  10.705  -5.944  1.00  0.00     0.044 C 
ATOM     16  C   UNL     1      -4.031  10.227  -4.546  1.00  0.00    -0.049 A 
ATOM     17  C   UNL     1      -3.000   9.820  -3.722  1.00  0.00     0.029 A 
ATOM     18  C   UNL     1      -5.335  10.202  -4.088  1.00  0.00     0.003 A 
ATOM     19  C   UNL     1      -5.613   9.759  -2.808  1.00  0.00     0.002 A 
ATOM     20  C   UNL     1      -4.588   9.345  -1.981  1.00  0.00     0.026 A 
ENDBRANCH  11  14
ENDBRANCH   5  10
ENDBRANCH   3   4
ENDBRANCH   1   3
BRANCH   1  21
ATOM     21  N   UNL     1       4.924  11.773  -0.064  1.00  0.00    -0.419 N 
ATOM     22  C   UNL     1       4.998  13.112   0.068  1.00  0.00     0.149 C 
ATOM     23  H   UNL     1       5.787  11.214  -0.132  1.00  0.00     0.029 HD
ATOM     24  O   UNL     1       3.982  13.770   0.147  1.00  0.00    -0.299 OA
BRANCH  22  25
ATOM     25  C   UNL     1       6.342  13.792   0.118  1.00  0.00     0.112 C 
BRANCH  25  26
ATOM     26  C   UNL     1       6.148  15.279   0.268  1.00  0.00    -0.033 A 
ATOM     27  C   UNL     1       5.962  15.841   1.542  1.00  0.00    -0.015 A 
ATOM     28  C   UNL     1       6.146  16.083  -0.830  1.00  0.00     0.005 A 
ATOM     29  C   UNL     1       5.786  17.242   1.665  1.00  0.00    -0.018 A 
ATOM     30  C   UNL     1       5.962  15.043   2.700  1.00  0.00     0.009 A 
ATOM     31  C   UNL     1       5.968  17.460  -0.710  1.00  0.00     0.001 A 
ATOM     32  C   UNL     1       5.790  18.040   0.508  1.00  0.00     0.009 A 
ATOM     33  C   UNL     1       5.606  17.805   2.940  1.00  0.00     0.009 A 
ATOM     34  C   UNL     1       5.785  15.624   3.918  1.00  0.00     0.001 A 
ATOM     35  C   UNL     1       5.608  17.001   4.037  1.00  0.00     0.001 A 
ENDBRANCH  25  26
ENDBRANCH  22  25
ENDBRANCH   1  21
TORSDOF 7
