REMARK SMILES CCCNC(=O)CN1CCC(Nc2nc(-c3cccnc3)nc3sc4c(c23)CCCC4)CC1
REMARK SMILES IDX 8 1 9 2 10 3 11 4 32 5 33 6 7 7 5 8 4 9 6 11 3 12 2 13 1 14
REMARK SMILES IDX 12 15 13 17 14 18 27 19 15 20 23 21 26 22 22 23 24 24 28 25
REMARK SMILES IDX 25 26 29 27 31 28 30 29 16 30 21 31 17 32 20 33 18 34 19 35
REMARK H PARENT 4 10 12 16
REMARK Flexibility Score: inf
ROOT
ATOM      1  N   UNL     1       0.235  -7.037  -1.101  1.00  0.00    -0.294 NA
ATOM      2  C   UNL     1       0.168  -6.752   0.338  1.00  0.00     0.087 C 
ATOM      3  C   UNL     1      -0.143  -5.268   0.551  1.00  0.00     0.040 C 
ATOM      4  C   UNL     1       0.952  -4.423  -0.106  1.00  0.00     0.083 C 
ATOM      5  C   UNL     1       1.036  -4.774  -1.594  1.00  0.00     0.040 C 
ATOM      6  C   UNL     1       1.310  -6.272  -1.745  1.00  0.00     0.087 C 
ENDROOT
BRANCH   1   7
ATOM      7  C   UNL     1       0.394  -8.477  -1.345  1.00  0.00     0.184 C 
BRANCH   7   8
ATOM      8  C   UNL     1      -0.851  -9.202  -0.902  1.00  0.00     0.234 C 
ATOM      9  N   UNL     1      -0.887 -10.549  -0.916  1.00  0.00    -0.355 N 
ATOM     10  H   UNL     1      -0.064 -11.083  -1.230  1.00  0.00     0.163 HD
ATOM     11  O   UNL     1      -1.820  -8.573  -0.533  1.00  0.00    -0.274 OA
BRANCH   9  12
ATOM     12  C   UNL     1      -2.096 -11.254  -0.485  1.00  0.00     0.115 C 
BRANCH  12  13
ATOM     13  C   UNL     1      -1.874 -12.764  -0.598  1.00  0.00     0.018 C 
ATOM     14  C   UNL     1      -3.138 -13.500  -0.148  1.00  0.00     0.006 C 
ENDBRANCH  12  13
ENDBRANCH   9  12
ENDBRANCH   7   8
ENDBRANCH   1   7
BRANCH   4  15
ATOM     15  N   UNL     1       0.630  -3.002   0.044  1.00  0.00    -0.367 N 
ATOM     16  H   UNL     1      -0.349  -2.706   0.170  1.00  0.00     0.162 HD
BRANCH  15  17
ATOM     17  C   UNL     1       1.640  -2.057   0.017  1.00  0.00     0.139 A 
ATOM     18  N   UNL     1       2.901  -2.381  -0.253  1.00  0.00    -0.210 NA
ATOM     19  C   UNL     1       1.392  -0.677   0.278  1.00  0.00     0.057 A 
ATOM     20  C   UNL     1       3.897  -1.506  -0.288  1.00  0.00     0.164 A 
ATOM     21  C   UNL     1       2.507   0.199   0.223  1.00  0.00     0.130 A 
ATOM     22  C   UNL     1       0.114  -0.063   0.598  1.00  0.00    -0.021 A 
ATOM     23  N   UNL     1       3.730  -0.202  -0.054  1.00  0.00    -0.217 NA
ATOM     24  S   UNL     1       1.808   1.776   0.593  1.00  0.00    -0.120 S 
ATOM     25  C   UNL     1      -1.184  -0.859   0.698  1.00  0.00     0.037 C 
ATOM     26  C   UNL     1       0.119   1.274   0.808  1.00  0.00     0.011 A 
ATOM     27  C   UNL     1      -2.209  -0.040   1.483  1.00  0.00     0.005 C 
ATOM     28  C   UNL     1      -1.054   2.143   1.143  1.00  0.00     0.047 C 
ATOM     29  C   UNL     1      -2.341   1.355   0.865  1.00  0.00     0.006 C 
BRANCH  20  30
ATOM     30  C   UNL     1       5.260  -1.998  -0.603  1.00  0.00     0.038 A 
ATOM     31  C   UNL     1       5.483  -3.351  -0.855  1.00  0.00     0.123 A 
ATOM     32  C   UNL     1       6.341  -1.113  -0.657  1.00  0.00     0.015 A 
ATOM     33  N   UNL     1       6.693  -3.789  -1.135  1.00  0.00    -0.264 NA
ATOM     34  C   UNL     1       7.593  -1.624  -0.949  1.00  0.00     0.021 A 
ATOM     35  C   UNL     1       7.733  -2.979  -1.187  1.00  0.00     0.111 A 
ENDBRANCH  20  30
ENDBRANCH  15  17
ENDBRANCH   4  15
TORSDOF 7
