REMARK SMILES CCCCn1c(N)c(N(Cc2ccco2)C(=O)c2cc3c(s2)CCCCC3)c(=O)[nH]c1=O
REMARK SMILES IDX 16 1 17 2 9 3 8 4 5 5 31 6 6 7 30 8 32 9 28 10 29 12 4 13
REMARK SMILES IDX 3 14 2 15 1 16 7 17 10 20 11 21 15 22 12 23 14 24 13 25
REMARK SMILES IDX 18 26 22 27 19 28 21 29 20 30 23 31 24 32 25 33 26 34 27 36
REMARK H PARENT 30 11 7 18 7 19
REMARK Flexibility Score: 80.00
ROOT
ATOM      1  C   UNL     1       0.140  -2.533  -4.004  1.00  0.00     0.269 C 
ATOM      2  O   UNL     1      -0.020  -1.351  -4.248  1.00  0.00    -0.268 OA
ENDROOT
BRANCH   1   3
ATOM      3  N   UNL     1      -0.198  -3.024  -2.796  1.00  0.00    -0.292 N 
BRANCH   3   4
ATOM      4  C   UNL     1      -0.630  -2.151  -1.775  1.00  0.00     0.151 A 
ATOM      5  N   UNL     1      -0.299  -1.081   0.322  1.00  0.00    -0.278 N 
ATOM      6  C   UNL     1      -1.484  -0.457   0.189  1.00  0.00     0.330 A 
ATOM      7  C   UNL     1       0.151  -1.935  -0.659  1.00  0.00     0.137 A 
ATOM      8  N   UNL     1      -2.256  -0.651  -0.895  1.00  0.00    -0.272 N 
ATOM      9  O   UNL     1      -1.862   0.297   1.064  1.00  0.00    -0.248 OA
ATOM     10  C   UNL     1      -1.863  -1.481  -1.881  1.00  0.00     0.279 A 
ATOM     11  H   UNL     1      -3.159  -0.161  -0.971  1.00  0.00     0.175 HD
ATOM     12  O   UNL     1      -2.572  -1.650  -2.860  1.00  0.00    -0.267 OA
BRANCH   5  13
ATOM     13  C   UNL     1       0.518  -0.847   1.515  1.00  0.00     0.129 C 
BRANCH  13  14
ATOM     14  C   UNL     1       0.147  -1.865   2.595  1.00  0.00     0.022 C 
BRANCH  14  15
ATOM     15  C   UNL     1       1.001  -1.619   3.841  1.00  0.00    -0.002 C 
ATOM     16  C   UNL     1       0.630  -2.638   4.921  1.00  0.00     0.004 C 
ENDBRANCH  14  15
ENDBRANCH  13  14
ENDBRANCH   5  13
BRANCH   7  17
ATOM     17  N   UNL     1       1.364  -2.569  -0.525  1.00  0.00    -0.383 N 
ATOM     18  H   UNL     1       1.937  -2.403   0.315  1.00  0.00     0.158 HD
ATOM     19  H   UNL     1       1.698  -3.207  -1.261  1.00  0.00     0.158 HD
ENDBRANCH   7  17
ENDBRANCH   3   4
BRANCH   3  20
ATOM     20  C   UNL     1      -0.116  -4.464  -2.541  1.00  0.00     0.201 C 
BRANCH  20  21
ATOM     21  C   UNL     1      -1.383  -5.130  -3.014  1.00  0.00     0.123 A 
ATOM     22  O   UNL     1      -2.425  -5.475  -2.240  1.00  0.00    -0.467 OA
ATOM     23  C   UNL     1      -1.659  -5.486  -4.282  1.00  0.00     0.047 A 
ATOM     24  C   UNL     1      -3.377  -6.042  -2.999  1.00  0.00     0.195 A 
ATOM     25  C   UNL     1      -2.944  -6.074  -4.272  1.00  0.00     0.042 A 
ENDBRANCH  20  21
ENDBRANCH   3  20
ENDBRANCH   1   3
BRANCH   1  26
ATOM     26  C   UNL     1       0.701  -3.422  -5.026  1.00  0.00     0.093 A 
ATOM     27  S   UNL     1       1.156  -5.144  -4.894  1.00  0.00    -0.135 S 
ATOM     28  C   UNL     1       1.021  -3.146  -6.343  1.00  0.00     0.029 A 
ATOM     29  C   UNL     1       1.689  -5.376  -6.514  1.00  0.00     0.009 A 
ATOM     30  C   UNL     1       1.552  -4.173  -7.115  1.00  0.00    -0.033 A 
BRANCH  29  31
ATOM     31  C   UNL     1       2.181  -6.655  -7.151  1.00  0.00     0.047 C 
BRANCH  31  32
ATOM     32  C   UNL     1       3.676  -6.464  -7.460  1.00  0.00     0.006 C 
BRANCH  32  33
ATOM     33  C   UNL     1       3.850  -5.644  -8.717  1.00  0.00     0.001 C 
BRANCH  33  34
ATOM     34  C   UNL     1       3.513  -4.179  -8.616  1.00  0.00     0.005 CG0
ATOM     35  G   UNL     1       2.003  -3.939  -8.563  1.00  0.00     0.000 G0
ENDBRANCH  33  34
ENDBRANCH  32  33
ENDBRANCH  31  32
ENDBRANCH  29  31
BRANCH  30  36
ATOM     36  C   UNL     1       2.003  -3.939  -8.563  1.00  0.00     0.037 CG0
ATOM     37  G   UNL     1       3.513  -4.179  -8.616  1.00  0.00     0.000 G0
ENDBRANCH  30  36
ENDBRANCH   1  26
TORSDOF 9
