REMARK SMILES Cc1nc(S[C@H](C)c2nc3cc(Cl)ccc3n2Cc2ccccc2)sc1CC(N)=O
REMARK SMILES IDX 6 1 7 2 5 3 4 4 1 5 2 6 3 7 26 8 25 9 27 10 28 11 30 12
REMARK SMILES IDX 29 13 8 16 17 17 9 18 16 19 10 20 15 21 11 22 14 23 12 24
REMARK SMILES IDX 13 25 18 26 19 27 24 28 20 29 23 30 21 31 22 32
REMARK H PARENT 29 14 29 15
REMARK Flexibility Score: inf
ROOT
ATOM      1  C   UNL     1      -0.729   1.579   1.267  1.00  0.00     0.117 C 
ATOM      2  C   UNL     1      -0.013   1.086   0.008  1.00  0.00     0.028 C 
ENDROOT
BRANCH   1   3
ATOM      3  S   UNL     1      -0.753   3.389   1.277  1.00  0.00    -0.084 SA
BRANCH   3   4
ATOM      4  C   UNL     1       0.972   3.718   1.413  1.00  0.00     0.151 A 
ATOM      5  C   UNL     1       4.363   2.300   1.667  1.00  0.00     0.068 C 
ATOM      6  C   UNL     1       3.223   3.283   1.585  1.00  0.00     0.053 A 
ATOM      7  N   UNL     1       1.976   2.864   1.485  1.00  0.00    -0.235 NA
ATOM      8  C   UNL     1       3.456   4.617   1.611  1.00  0.00     0.038 A 
ATOM      9  S   UNL     1       1.790   5.248   1.480  1.00  0.00    -0.112 S 
BRANCH   8  10
ATOM     10  C   UNL     1       4.761   5.364   1.717  1.00  0.00     0.148 C 
BRANCH  10  11
ATOM     11  C   UNL     1       5.305   5.622   0.335  1.00  0.00     0.222 C 
ATOM     12  O   UNL     1       4.693   5.237  -0.639  1.00  0.00    -0.275 OA
ATOM     13  N   UNL     1       6.471   6.279   0.182  1.00  0.00    -0.369 N 
ATOM     14  H   UNL     1       6.991   6.606   1.010  1.00  0.00     0.159 HD
ATOM     15  H   UNL     1       6.843   6.456  -0.762  1.00  0.00     0.159 HD
ENDBRANCH  10  11
ENDBRANCH   8  10
ENDBRANCH   3   4
ENDBRANCH   1   3
BRANCH   1  16
ATOM     16  C   UNL     1      -2.143   1.058   1.278  1.00  0.00     0.123 A 
ATOM     17  N   UNL     1      -2.592   0.041   2.061  1.00  0.00    -0.323 N 
ATOM     18  N   UNL     1      -3.110   1.511   0.535  1.00  0.00    -0.232 NA
ATOM     19  C   UNL     1      -3.933  -0.132   1.781  1.00  0.00     0.069 A 
ATOM     20  C   UNL     1      -4.249   0.819   0.795  1.00  0.00     0.090 A 
ATOM     21  C   UNL     1      -4.915  -0.994   2.251  1.00  0.00     0.030 A 
ATOM     22  C   UNL     1      -5.552   0.886   0.297  1.00  0.00     0.051 A 
ATOM     23  C   UNL     1      -6.196  -0.915   1.749  1.00  0.00     0.023 A 
ATOM     24  C   UNL     1      -6.513   0.023   0.775  1.00  0.00     0.043 A 
ATOM     25  Cl  UNL     1      -8.132   0.108   0.155  1.00  0.00    -0.084 Cl
BRANCH  17  26
ATOM     26  C   UNL     1      -1.801  -0.728   3.025  1.00  0.00     0.159 C 
BRANCH  26  27
ATOM     27  C   UNL     1      -1.865  -0.058   4.374  1.00  0.00    -0.028 A 
ATOM     28  C   UNL     1      -2.862  -0.401   5.269  1.00  0.00     0.005 A 
ATOM     29  C   UNL     1      -0.924   0.894   4.719  1.00  0.00     0.005 A 
ATOM     30  C   UNL     1      -2.921   0.212   6.506  1.00  0.00     0.000 A 
ATOM     31  C   UNL     1      -0.986   1.511   5.954  1.00  0.00     0.000 A 
ATOM     32  C   UNL     1      -1.983   1.169   6.849  1.00  0.00     0.000 A 
ENDBRANCH  26  27
ENDBRANCH  17  26
ENDBRANCH   1  16
TORSDOF 7
