REMARK SMILES Cn1c(=O)c(C2=NN(c3ccccc3)[C@@H](c3c(O)ccc4ccccc34)C2)c([O-])c2ccccc21
REMARK SMILES IDX 16 1 26 2 25 3 24 4 23 5 22 6 21 7 20 8 19 9 17 10 15 11
REMARK SMILES IDX 6 12 27 13 7 14 8 15 5 16 1 17 2 18 3 19 35 20 4 21 30 22
REMARK SMILES IDX 34 23 28 24 31 25 33 26 29 27 32 28 9 29 14 30 10 31 13 32
REMARK SMILES IDX 11 33 12 34 18 35
REMARK H PARENT 18 36
REMARK Flexibility Score: inf
ROOT
ATOM      1  C   UNL     1       1.197   2.119   0.002  1.00  0.00     0.027 A 
ATOM      2  C   UNL     1      -0.017   1.413   0.010  1.00  0.00    -0.009 A 
ATOM      3  C   UNL     1      -1.252   2.086   0.031  1.00  0.00     0.009 A 
ATOM      4  C   UNL     1      -2.409   1.369   0.033  1.00  0.00     0.001 A 
ATOM      5  C   UNL     1      -2.389  -0.024   0.026  1.00  0.00     0.001 A 
ATOM      6  C   UNL     1      -1.213  -0.709   0.010  1.00  0.00     0.009 A 
ATOM      7  C   UNL     1       0.002  -0.004   0.002  1.00  0.00    -0.018 A 
ATOM      8  C   UNL     1       1.236  -0.678  -0.013  1.00  0.00     0.012 A 
ATOM      9  C   UNL     1       2.394   0.035  -0.021  1.00  0.00     0.047 A 
ATOM     10  C   UNL     1       2.377   1.433  -0.013  1.00  0.00     0.121 A 
ENDROOT
BRANCH   1  11
ATOM     11  C   UNL     1       1.197   3.627   0.010  1.00  0.00     0.148 C 
ATOM     12  C   UNL     1       2.851   4.947   1.152  1.00  0.00     0.076 C 
ATOM     13  C   UNL     1       1.583   4.162   1.403  1.00  0.00     0.091 C 
ATOM     14  N   UNL     1       3.151   4.893  -0.101  1.00  0.00    -0.176 NA
ATOM     15  N   UNL     1       2.256   4.149  -0.868  1.00  0.00    -0.257 N 
BRANCH  12  16
ATOM     16  C   UNL     1       3.623   5.664   2.180  1.00  0.00     0.056 A 
ATOM     17  C   UNL     1       6.761   7.769   2.348  1.00  0.00     0.153 C 
ATOM     18  N   UNL     1       5.549   7.050   2.751  1.00  0.00    -0.311 N 
ATOM     19  C   UNL     1       4.838   6.393   1.819  1.00  0.00     0.259 A 
ATOM     20  C   UNL     1       5.168   7.066   4.077  1.00  0.00     0.050 A 
ATOM     21  O   UNL     1       5.210   6.404   0.659  1.00  0.00    -0.269 OA
ATOM     22  C   UNL     1       4.009   6.386   4.494  1.00  0.00    -0.009 A 
ATOM     23  C   UNL     1       5.926   7.757   5.017  1.00  0.00     0.027 A 
ATOM     24  C   UNL     1       3.202   5.661   3.507  1.00  0.00    -0.084 A 
ATOM     25  C   UNL     1       3.634   6.411   5.842  1.00  0.00     0.009 A 
ATOM     26  C   UNL     1       5.538   7.768   6.339  1.00  0.00     0.002 A 
ATOM     27  O   UNL     1       2.080   5.003   3.878  1.00  0.00    -0.871 OA
ATOM     28  C   UNL     1       4.394   7.096   6.746  1.00  0.00     0.001 A 
ENDBRANCH  12  16
BRANCH  15  29
ATOM     29  C   UNL     1       2.350   3.934  -2.243  1.00  0.00     0.060 A 
ATOM     30  C   UNL     1       3.404   4.484  -2.964  1.00  0.00     0.028 A 
ATOM     31  C   UNL     1       1.393   3.165  -2.895  1.00  0.00     0.028 A 
ATOM     32  C   UNL     1       3.493   4.269  -4.325  1.00  0.00     0.002 A 
ATOM     33  C   UNL     1       1.486   2.960  -4.257  1.00  0.00     0.002 A 
ATOM     34  C   UNL     1       2.536   3.508  -4.971  1.00  0.00     0.000 A 
ENDBRANCH  15  29
ENDBRANCH   1  11
BRANCH  10  35
ATOM     35  O   UNL     1       3.551   2.117  -0.021  1.00  0.00    -0.508 OA
ATOM     36  H   UNL     1       3.517   2.699   0.779  1.00  0.00     0.293 HD
ENDBRANCH  10  35
TORSDOF 4
