REMARK SMILES C[C@H](c1ccc(F)c(F)c1)N(C)CC(=O)Nc1cc2c(cc1Cl)C(=O)c1ccccc1C2=O
REMARK SMILES IDX 11 1 12 2 2 3 1 4 3 5 10 6 4 7 8 8 5 9 6 10 9 11 7 12 13 13
REMARK SMILES IDX 14 14 15 15 16 16 17 18 22 19 18 20 21 21 23 22 19 23 20 24
REMARK SMILES IDX 32 25 24 26 31 27 33 28 25 29 26 30 30 31 27 32 29 33 28 34
REMARK H PARENT 16 17
REMARK Flexibility Score: inf
ROOT
ATOM      1  N   UNL     1       3.257   1.752   0.897  1.00  0.00    -0.291 NA
ATOM      2  C   UNL     1       3.477   3.139   0.464  1.00  0.00     0.106 C 
ENDROOT
BRANCH   1   3
ATOM      3  C   UNL     1       2.370   1.044  -0.037  1.00  0.00     0.084 C 
ATOM      4  C   UNL     1       1.107   1.874  -0.270  1.00  0.00     0.030 C 
BRANCH   3   5
ATOM      5  C   UNL     1       1.992  -0.294   0.546  1.00  0.00    -0.028 A 
ATOM      6  C   UNL     1       1.797  -0.422   1.908  1.00  0.00     0.047 A 
ATOM      7  C   UNL     1       1.841  -1.390  -0.282  1.00  0.00     0.008 A 
ATOM      8  C   UNL     1       1.450  -1.650   2.445  1.00  0.00     0.159 A 
ATOM      9  C   UNL     1       1.490  -2.616   0.249  1.00  0.00     0.043 A 
ATOM     10  C   UNL     1       1.298  -2.750   1.614  1.00  0.00     0.158 A 
ATOM     11  F   UNL     1       1.259  -1.777   3.776  1.00  0.00    -0.204 F 
ATOM     12  F   UNL     1       0.959  -3.950   2.135  1.00  0.00    -0.204 F 
ENDBRANCH   3   5
ENDBRANCH   1   3
BRANCH   1  13
ATOM     13  C   UNL     1       4.532   1.041   1.053  1.00  0.00     0.185 C 
BRANCH  13  14
ATOM     14  C   UNL     1       5.311   1.651   2.190  1.00  0.00     0.238 C 
ATOM     15  O   UNL     1       4.849   2.587   2.808  1.00  0.00    -0.273 OA
ATOM     16  N   UNL     1       6.522   1.158   2.519  1.00  0.00    -0.324 N 
ATOM     17  H   UNL     1       6.886   0.324   2.037  1.00  0.00     0.170 HD
BRANCH  16  18
ATOM     18  C   UNL     1       7.281   1.777   3.512  1.00  0.00     0.060 A 
ATOM     19  C   UNL     1       8.667   1.816   3.401  1.00  0.00     0.065 A 
ATOM     20  C   UNL     1       6.647   2.357   4.608  1.00  0.00     0.040 A 
ATOM     21  C   UNL     1       9.430   2.426   4.380  1.00  0.00     0.035 A 
ATOM     22  Cl  UNL     1       9.443   1.096   2.026  1.00  0.00    -0.082 Cl
ATOM     23  C   UNL     1       7.405   2.967   5.599  1.00  0.00     0.036 A 
ATOM     24  C   UNL     1       8.809   3.005   5.484  1.00  0.00     0.035 A 
ATOM     25  C   UNL     1       6.750   3.583   6.774  1.00  0.00     0.194 C 
ATOM     26  C   UNL     1       9.611   3.658   6.538  1.00  0.00     0.194 C 
ATOM     27  C   UNL     1       7.572   3.952   7.947  1.00  0.00     0.034 A 
ATOM     28  O   UNL     1       5.551   3.783   6.775  1.00  0.00    -0.289 OA
ATOM     29  O   UNL     1      10.782   3.920   6.346  1.00  0.00    -0.289 OA
ATOM     30  C   UNL     1       8.973   3.988   7.832  1.00  0.00     0.034 A 
ATOM     31  C   UNL     1       6.971   4.262   9.163  1.00  0.00     0.013 A 
ATOM     32  C   UNL     1       9.747   4.333   8.935  1.00  0.00     0.013 A 
ATOM     33  C   UNL     1       7.756   4.604  10.251  1.00  0.00     0.001 A 
ATOM     34  C   UNL     1       9.134   4.639  10.137  1.00  0.00     0.001 A 
ENDBRANCH  16  18
ENDBRANCH  13  14
ENDBRANCH   1  13
TORSDOF 5
