REMARK SMILES CCOC(=O)[C@H]1CC[C@H](CNC(=O)Nc2c(O)oc3ccccc3c2=NC2CCCC2)CC1
REMARK SMILES IDX 6 1 33 2 32 3 9 4 8 5 7 6 4 7 5 8 3 9 2 10 1 11 10 12 11 13
REMARK SMILES IDX 12 14 13 16 14 17 15 19 16 20 25 21 18 22 24 23 26 24 19 25
REMARK SMILES IDX 23 26 20 27 22 28 21 29 17 30 27 32 31 33 28 34 30 35 29 36
REMARK H PARENT 11 15 14 18 17 31
REMARK Flexibility Score: inf
ROOT
ATOM      1  C   UNL     1      11.884   4.212  -1.176  1.00  0.00     0.099 C 
ATOM      2  C   UNL     1      11.834   3.264   0.025  1.00  0.00     0.015 C 
ATOM      3  C   UNL     1      10.562   2.418  -0.046  1.00  0.00     0.006 C 
ATOM      4  C   UNL     1       9.337   3.335  -0.023  1.00  0.00     0.008 C 
ATOM      5  C   UNL     1       9.387   4.282  -1.223  1.00  0.00     0.006 C 
ATOM      6  C   UNL     1      10.659   5.129  -1.153  1.00  0.00     0.015 C 
ENDROOT
BRANCH   1   7
ATOM      7  C   UNL     1      13.137   5.045  -1.106  1.00  0.00     0.308 C 
ATOM      8  O   UNL     1      13.911   4.897  -0.190  1.00  0.00    -0.252 OA
BRANCH   7   9
ATOM      9  O   UNL     1      13.394   5.953  -2.061  1.00  0.00    -0.466 OA
BRANCH   9  10
ATOM     10  C   UNL     1      14.619   6.720  -1.929  1.00  0.00     0.229 C 
ATOM     11  C   UNL     1      14.739   7.696  -3.102  1.00  0.00     0.049 C 
ENDBRANCH   9  10
ENDBRANCH   7   9
ENDBRANCH   1   7
BRANCH   4  12
ATOM     12  C   UNL     1       8.065   2.488  -0.094  1.00  0.00     0.121 C 
BRANCH  12  13
ATOM     13  N   UNL     1       6.893   3.355   0.048  1.00  0.00    -0.338 N 
ATOM     14  C   UNL     1       5.654   2.825   0.016  1.00  0.00     0.319 C 
ATOM     15  H   UNL     1       7.015   4.370   0.172  1.00  0.00     0.165 HD
ATOM     16  O   UNL     1       5.509   1.626  -0.131  1.00  0.00    -0.249 OA
ATOM     17  N   UNL     1       4.576   3.623   0.147  1.00  0.00    -0.300 N 
ATOM     18  H   UNL     1       4.698   4.624   0.355  1.00  0.00     0.172 HD
BRANCH  17  19
ATOM     19  C   UNL     1       3.283   3.088  -0.001  1.00  0.00     0.151 A 
ATOM     20  C   UNL     1       2.873   1.996   0.784  1.00  0.00     0.309 A 
ATOM     21  C   UNL     1       2.404   3.633  -0.921  1.00  0.00     0.100 A 
ATOM     22  O   UNL     1       1.647   1.462   0.668  1.00  0.00    -0.424 OA
ATOM     23  C   UNL     1       1.065   3.032  -1.032  1.00  0.00     0.045 A 
ATOM     24  N   UNL     1       2.772   4.705  -1.711  1.00  0.00    -0.279 NA
ATOM     25  C   UNL     1       0.739   1.943  -0.209  1.00  0.00     0.140 A 
ATOM     26  C   UNL     1       0.127   3.530  -1.938  1.00  0.00     0.014 A 
ATOM     27  C   UNL     1      -0.523   1.369  -0.306  1.00  0.00     0.048 A 
ATOM     28  C   UNL     1      -1.119   2.947  -2.018  1.00  0.00     0.001 A 
ATOM     29  C   UNL     1      -1.438   1.867  -1.209  1.00  0.00     0.004 A 
BRANCH  20  30
ATOM     30  O   UNL     1       3.652   1.521   1.593  1.00  0.00    -0.479 OA
ATOM     31  H   UNL     1       3.910   2.277   2.178  1.00  0.00     0.297 HD
ENDBRANCH  20  30
BRANCH  24  32
ATOM     32  C   UNL     1       3.191   4.258  -3.046  1.00  0.00     0.106 C 
ATOM     33  C   UNL     1       2.927   5.366  -4.080  1.00  0.00     0.027 C 
ATOM     34  C   UNL     1       4.710   3.991  -3.061  1.00  0.00     0.027 C 
ATOM     35  C   UNL     1       4.295   5.735  -4.689  1.00  0.00     0.002 C 
ATOM     36  C   UNL     1       5.165   4.474  -4.462  1.00  0.00     0.002 C 
ENDBRANCH  24  32
ENDBRANCH  17  19
ENDBRANCH  12  13
ENDBRANCH   4  12
TORSDOF 8
