REMARK SMILES COc1ccccc1[C@H]1C2=C(C[C@H](c3cccs3)CC2=O)Nc2[nH]nc(O)c21
REMARK SMILES IDX 9 1 28 2 23 3 24 4 25 5 26 6 22 7 11 8 10 9 20 10 21 11
REMARK SMILES IDX 19 12 13 13 12 14 8 17 3 18 4 19 7 20 5 21 6 22 2 23 1 24
REMARK SMILES IDX 27 25 14 27 18 28 15 29 17 30 16 31
REMARK H PARENT 24 15 22 16 27 26
REMARK Flexibility Score: inf
ROOT
ATOM      1  C   UNL     1      -0.013   1.086   0.008  1.00  0.00     0.098 C 
ATOM      2  C   UNL     1       1.397   1.605  -0.003  1.00  0.00     0.070 A 
ATOM      3  C   UNL     1       1.800   2.616  -0.835  1.00  0.00     0.133 A 
ATOM      4  N   UNL     1       3.106   2.846  -0.599  1.00  0.00    -0.259 N 
ATOM      5  N   UNL     1       3.524   1.954   0.402  1.00  0.00    -0.135 NA
ATOM      6  C   UNL     1       2.496   1.213   0.755  1.00  0.00     0.236 A 
ATOM      7  N   UNL     1       0.919   3.214  -1.727  1.00  0.00    -0.343 N 
ATOM      8  C   UNL     1      -0.275   2.590  -1.986  1.00  0.00     0.025 C 
ATOM      9  C   UNL     1      -0.749   1.586  -1.216  1.00  0.00     0.027 C 
ATOM     10  C   UNL     1      -1.965   0.952  -1.526  1.00  0.00     0.162 C 
ATOM     11  O   UNL     1      -2.365   0.054  -0.811  1.00  0.00    -0.294 OA
ATOM     12  C   UNL     1      -2.781   1.357  -2.721  1.00  0.00     0.090 C 
ATOM     13  C   UNL     1      -1.845   1.921  -3.795  1.00  0.00     0.043 C 
ATOM     14  C   UNL     1      -1.057   3.081  -3.183  1.00  0.00     0.064 C 
ATOM     15  H   UNL     1       3.693   3.551  -1.068  1.00  0.00     0.192 HD
ATOM     16  H   UNL     1       1.157   4.106  -2.183  1.00  0.00     0.168 HD
ENDROOT
BRANCH   1  17
ATOM     17  C   UNL     1      -0.717   1.571   1.249  1.00  0.00     0.007 A 
ATOM     18  C   UNL     1      -1.227   0.658   2.160  1.00  0.00     0.123 A 
ATOM     19  C   UNL     1      -1.871   1.108   3.304  1.00  0.00     0.047 A 
ATOM     20  C   UNL     1      -0.860   2.926   1.478  1.00  0.00     0.008 A 
ATOM     21  C   UNL     1      -2.010   2.463   3.528  1.00  0.00     0.004 A 
ATOM     22  C   UNL     1      -1.505   3.372   2.616  1.00  0.00     0.001 A 
BRANCH  18  23
ATOM     23  O   UNL     1      -1.092  -0.676   1.934  1.00  0.00    -0.496 OA
ATOM     24  C   UNL     1      -1.642  -1.558   2.915  1.00  0.00     0.278 C 
ENDBRANCH  18  23
ENDBRANCH   1  17
BRANCH   6  25
ATOM     25  O   UNL     1       2.506   0.234   1.698  1.00  0.00    -0.492 OA
ATOM     26  H   UNL     1       2.156  -0.545   1.198  1.00  0.00     0.295 HD
ENDBRANCH   6  25
BRANCH  13  27
ATOM     27  C   UNL     1      -2.654   2.417  -4.965  1.00  0.00     0.008 A 
ATOM     28  S   UNL     1      -3.912   3.684  -5.006  1.00  0.00    -0.149 S 
ATOM     29  C   UNL     1      -2.612   2.022  -6.261  1.00  0.00     0.015 A 
ATOM     30  C   UNL     1      -4.302   3.595  -6.746  1.00  0.00     0.065 A 
ATOM     31  C   UNL     1      -3.460   2.622  -7.173  1.00  0.00     0.012 A 
ENDBRANCH  13  27
TORSDOF 4
