REMARK SMILES C[C@@H]1CCc2[nH]c3ccc(C(=O)NNC(=O)Cc4c[nH]c5ccccc45)cc3c2C1
REMARK SMILES IDX 14 1 15 2 16 3 13 5 11 6 12 7 10 9 1 10 2 11 30 12 3 13
REMARK SMILES IDX 29 14 4 15 5 16 28 17 6 18 7 19 27 20 8 22 9 23 17 24 18 25
REMARK SMILES IDX 26 26 19 27 21 28 25 29 20 30 22 31 24 32 23 34
REMARK H PARENT 14 4 13 8 6 21 20 33
REMARK Flexibility Score: inf
ROOT
ATOM      1  N   UNL     1       2.335   5.647   0.009  1.00  0.00    -0.267 N 
ATOM      2  C   UNL     1       3.499   6.326   0.002  1.00  0.00     0.242 C 
ATOM      3  O   UNL     1       4.552   5.725  -0.011  1.00  0.00    -0.273 OA
ATOM      4  H   UNL     1       1.440   6.157   0.021  1.00  0.00     0.191 HD
ENDROOT
BRANCH   1   5
ATOM      5  N   UNL     1       2.342   4.246   0.002  1.00  0.00    -0.263 N 
ATOM      6  C   UNL     1       1.178   3.566   0.010  1.00  0.00     0.269 C 
ATOM      7  O   UNL     1       0.122   4.169   0.023  1.00  0.00    -0.267 OA
ATOM      8  H   UNL     1       3.236   3.735  -0.009  1.00  0.00     0.191 HD
BRANCH   6   9
ATOM      9  C   UNL     1       1.185   2.090   0.002  1.00  0.00     0.042 A 
ATOM     10  C   UNL     1      -4.686  -2.105  -0.145  1.00  0.00     0.008 C 
ATOM     11  C   UNL     1      -3.179  -2.179  -0.397  1.00  0.00    -0.009 C 
ATOM     12  C   UNL     1      -2.525  -0.854   0.014  1.00  0.00     0.041 C 
ATOM     13  C   UNL     1      -2.578  -3.319   0.430  1.00  0.00     0.010 C 
ATOM     14  C   UNL     1      -1.029  -1.038   0.004  1.00  0.00    -0.019 A 
ATOM     15  C   UNL     1      -1.127  -3.556  -0.004  1.00  0.00     0.054 C 
ATOM     16  C   UNL     1      -0.403  -2.229  -0.005  1.00  0.00     0.019 A 
ATOM     17  C   UNL     1       0.002  -0.004   0.002  1.00  0.00     0.004 A 
ATOM     18  N   UNL     1       0.950  -2.036  -0.015  1.00  0.00    -0.358 N 
ATOM     19  C   UNL     1       1.234  -0.690  -0.012  1.00  0.00     0.046 A 
ATOM     20  C   UNL     1      -0.017   1.389   0.010  1.00  0.00     0.024 A 
ATOM     21  H   UNL     1       1.654  -2.788  -0.024  1.00  0.00     0.166 HD
ATOM     22  C   UNL     1       2.425   0.033  -0.020  1.00  0.00     0.027 A 
ATOM     23  C   UNL     1       2.403   1.395  -0.013  1.00  0.00     0.016 A 
ENDBRANCH   6   9
ENDBRANCH   1   5
BRANCH   2  24
ATOM     24  C   UNL     1       3.491   7.833   0.010  1.00  0.00     0.139 C 
BRANCH  24  25
ATOM     25  C   UNL     1       4.910   8.343  -0.001  1.00  0.00    -0.013 A 
ATOM     26  C   UNL     1       5.753   8.547  -1.181  1.00  0.00     0.003 A 
ATOM     27  C   UNL     1       5.637   8.701   1.069  1.00  0.00     0.087 A 
ATOM     28  C   UNL     1       6.984   9.031  -0.700  1.00  0.00     0.046 A 
ATOM     29  C   UNL     1       5.565   8.362  -2.552  1.00  0.00     0.010 A 
ATOM     30  N   UNL     1       6.881   9.110   0.671  1.00  0.00    -0.361 N 
ATOM     31  C   UNL     1       8.002   9.321  -1.603  1.00  0.00     0.026 A 
ATOM     32  C   UNL     1       6.579   8.653  -3.421  1.00  0.00     0.001 A 
ATOM     33  H   UNL     1       7.629   9.430   1.303  1.00  0.00     0.166 HD
ATOM     34  C   UNL     1       7.794   9.131  -2.951  1.00  0.00     0.002 A 
ENDBRANCH  24  25
ENDBRANCH   2  24
TORSDOF 4
