REMARK SMILES Cc1sc2nc(CCCSc3nnc(COc4ccc(C(C)(C)C)cc4)n3N)[nH]c(=O)c2c1C
REMARK SMILES IDX 11 1 12 2 13 3 14 4 27 5 10 6 9 7 8 8 7 9 6 10 34 11 33 12
REMARK SMILES IDX 32 13 2 14 4 15 30 16 3 17 1 18 5 19 31 20 29 21 28 23 15 26
REMARK SMILES IDX 16 27 17 28 26 29 18 30 25 31 19 32 20 33 21 34 22 35 23 36
REMARK SMILES IDX 24 37
REMARK H PARENT 29 22 28 24 28 25
REMARK Flexibility Score: inf
ROOT
ATOM      1  C   UNL     1       0.122   0.990  -2.724  1.00  0.00     0.209 A 
ATOM      2  N   UNL     1       1.194   0.253  -2.549  1.00  0.00    -0.121 NA
ATOM      3  N   UNL     1       1.683  -0.084  -3.689  1.00  0.00    -0.129 NA
ATOM      4  C   UNL     1       0.958   0.414  -4.651  1.00  0.00     0.190 A 
ATOM      5  N   UNL     1      -0.066   1.111  -4.071  1.00  0.00    -0.218 N 
ENDROOT
BRANCH   1   6
ATOM      6  S   UNL     1      -0.888   1.685  -1.458  1.00  0.00    -0.084 SA
BRANCH   6   7
ATOM      7  C   UNL     1      -0.013   1.086   0.008  1.00  0.00     0.079 C 
BRANCH   7   8
ATOM      8  C   UNL     1      -0.729   1.579   1.267  1.00  0.00     0.019 C 
BRANCH   8   9
ATOM      9  C   UNL     1       0.011   1.072   2.506  1.00  0.00     0.076 C 
BRANCH   9  10
ATOM     10  C   UNL     1      -0.694   1.558   3.746  1.00  0.00     0.110 A 
ATOM     11  C   UNL     1      -2.446   2.767   8.509  1.00  0.00     0.046 C 
ATOM     12  C   UNL     1      -2.799   3.008   7.064  1.00  0.00    -0.022 A 
ATOM     13  C   UNL     1      -1.982   2.445   6.006  1.00  0.00     0.080 A 
ATOM     14  C   UNL     1      -3.873   3.746   6.741  1.00  0.00     0.007 A 
ATOM     15  C   UNL     1      -2.414   2.741   4.700  1.00  0.00     0.131 A 
ATOM     16  C   UNL     1      -0.803   1.636   6.100  1.00  0.00     0.259 A 
ATOM     17  S   UNL     1      -3.860   3.735   4.958  1.00  0.00    -0.120 S 
ATOM     18  C   UNL     1      -4.855   4.421   7.664  1.00  0.00     0.057 C 
ATOM     19  N   UNL     1      -1.766   2.295   3.627  1.00  0.00    -0.224 NA
ATOM     20  O   UNL     1      -0.350   1.326   7.188  1.00  0.00    -0.269 OA
ATOM     21  N   UNL     1      -0.207   1.218   4.967  1.00  0.00    -0.310 N 
ATOM     22  H   UNL     1       0.635   0.629   5.028  1.00  0.00     0.171 HD
ENDBRANCH   9  10
ENDBRANCH   8   9
ENDBRANCH   7   8
ENDBRANCH   6   7
ENDBRANCH   1   6
BRANCH   5  23
ATOM     23  N   UNL     1      -1.066   1.789  -4.706  1.00  0.00    -0.335 N 
ATOM     24  H   UNL     1      -1.741   2.253  -4.081  1.00  0.00     0.178 HD
ATOM     25  H   UNL     1      -1.156   1.845  -5.731  1.00  0.00     0.178 HD
ENDBRANCH   5  23
BRANCH   4  26
ATOM     26  C   UNL     1       1.199   0.247  -6.129  1.00  0.00     0.308 C 
BRANCH  26  27
ATOM     27  O   UNL     1       0.512  -0.916  -6.596  1.00  0.00    -0.486 OA
BRANCH  27  28
ATOM     28  C   UNL     1       0.627  -1.212  -7.917  1.00  0.00     0.120 A 
ATOM     29  C   UNL     1      -0.013  -2.328  -8.437  1.00  0.00     0.047 A 
ATOM     30  C   UNL     1       1.380  -0.397  -8.749  1.00  0.00     0.047 A 
ATOM     31  C   UNL     1       0.105  -2.626  -9.781  1.00  0.00     0.008 A 
ATOM     32  C   UNL     1       1.501  -0.703 -10.090  1.00  0.00     0.008 A 
ATOM     33  C   UNL     1       0.861  -1.815 -10.607  1.00  0.00    -0.042 A 
BRANCH  33  34
ATOM     34  C   UNL     1       0.988  -2.143 -12.072  1.00  0.00    -0.013 C 
ATOM     35  C   UNL     1      -0.399  -2.140 -12.718  1.00  0.00     0.016 C 
ATOM     36  C   UNL     1       1.871  -1.097 -12.754  1.00  0.00     0.016 C 
ATOM     37  C   UNL     1       1.622  -3.527 -12.232  1.00  0.00     0.016 C 
ENDBRANCH  33  34
ENDBRANCH  27  28
ENDBRANCH  26  27
ENDBRANCH   4  26
TORSDOF 10
