REMARK SMILES O=C(NCc1cccnc1)[C@@H]1C[C@H]([NH2+]Cc2cccc3ccccc23)CN1Cc1cccc(Cl)c1
REMARK SMILES IDX 13 1 12 2 11 3 26 4 27 5 14 6 15 9 16 10 22 11 21 12 23 13
REMARK SMILES IDX 20 14 24 15 25 16 19 17 18 18 17 19 28 20 29 21 35 22 30 23
REMARK SMILES IDX 33 24 31 25 32 26 34 27 2 28 1 29 3 30 4 32 5 33 10 34 6 35
REMARK SMILES IDX 9 36 7 37 8 38
REMARK H PARENT 14 7 14 8 3 31
REMARK Flexibility Score: inf
ROOT
ATOM      1  C   UNL     1       6.516   0.159  -1.463  1.00  0.00     0.199 C 
ATOM      2  C   UNL     1       6.591  -0.721  -2.739  1.00  0.00     0.095 C 
ATOM      3  C   UNL     1       8.121  -0.821  -2.959  1.00  0.00     0.153 C 
ATOM      4  C   UNL     1       7.694   1.138  -1.645  1.00  0.00     0.150 C 
ATOM      5  N   UNL     1       8.634   0.512  -2.593  1.00  0.00    -0.282 NA
ENDROOT
BRANCH   1   6
ATOM      6  N   UNL     1       5.234   0.887  -1.417  1.00  0.00    -0.339 N 
ATOM      7  H   UNL     1       4.478   0.268  -1.743  1.00  0.00     0.346 HD
ATOM      8  H   UNL     1       5.286   1.709  -2.035  1.00  0.00     0.346 HD
BRANCH   6   9
ATOM      9  C   UNL     1       4.945   1.327  -0.039  1.00  0.00     0.298 C 
BRANCH   9  10
ATOM     10  C   UNL     1       3.632   2.067  -0.022  1.00  0.00     0.014 A 
ATOM     11  C   UNL     1       0.002  -0.004   0.002  1.00  0.00     0.001 A 
ATOM     12  C   UNL     1      -0.016   1.357   0.009  1.00  0.00     0.009 A 
ATOM     13  C   UNL     1       1.206  -0.706  -0.013  1.00  0.00     0.001 A 
ATOM     14  C   UNL     1       1.196   2.069   0.002  1.00  0.00    -0.018 A 
ATOM     15  C   UNL     1       2.399  -0.050  -0.021  1.00  0.00     0.009 A 
ATOM     16  C   UNL     1       2.420   1.355  -0.014  1.00  0.00    -0.010 A 
ATOM     17  C   UNL     1       1.216   3.473   0.009  1.00  0.00     0.009 A 
ATOM     18  C   UNL     1       2.409   4.129   0.001  1.00  0.00     0.001 A 
ATOM     19  C   UNL     1       3.613   3.428  -0.014  1.00  0.00     0.010 A 
ENDBRANCH   9  10
ENDBRANCH   6   9
ENDBRANCH   1   6
BRANCH   5  20
ATOM     20  C   UNL     1       9.979   0.393  -1.973  1.00  0.00     0.121 C 
BRANCH  20  21
ATOM     21  C   UNL     1       9.945  -0.637  -0.874  1.00  0.00    -0.032 A 
ATOM     22  C   UNL     1       9.649  -0.257   0.421  1.00  0.00     0.025 A 
ATOM     23  C   UNL     1      10.216  -1.962  -1.161  1.00  0.00     0.005 A 
ATOM     24  C   UNL     1       9.614  -1.204   1.429  1.00  0.00     0.041 A 
ATOM     25  C   UNL     1      10.185  -2.908  -0.153  1.00  0.00     0.002 A 
ATOM     26  C   UNL     1       9.884  -2.530   1.142  1.00  0.00     0.020 A 
ATOM     27  Cl  UNL     1       9.236  -0.728   3.055  1.00  0.00    -0.084 Cl
ENDBRANCH  20  21
ENDBRANCH   5  20
BRANCH   3  28
ATOM     28  C   UNL     1       8.425  -1.110  -4.407  1.00  0.00     0.237 C 
ATOM     29  O   UNL     1       9.023  -0.294  -5.075  1.00  0.00    -0.273 OA
ATOM     30  N   UNL     1       8.032  -2.275  -4.958  1.00  0.00    -0.351 N 
ATOM     31  H   UNL     1       7.524  -2.968  -4.391  1.00  0.00     0.163 HD
BRANCH  30  32
ATOM     32  C   UNL     1       8.327  -2.556  -6.365  1.00  0.00     0.153 C 
BRANCH  32  33
ATOM     33  C   UNL     1       7.785  -3.914  -6.731  1.00  0.00    -0.010 A 
ATOM     34  C   UNL     1       8.569  -5.042  -6.590  1.00  0.00     0.116 A 
ATOM     35  C   UNL     1       6.494  -4.045  -7.220  1.00  0.00     0.009 A 
ATOM     36  N   UNL     1       8.099  -6.234  -6.903  1.00  0.00    -0.264 NA
ATOM     37  C   UNL     1       6.037  -5.313  -7.543  1.00  0.00     0.020 A 
ATOM     38  C   UNL     1       6.877  -6.397  -7.370  1.00  0.00     0.111 A 
ENDBRANCH  32  33
ENDBRANCH  30  32
ENDBRANCH   3  28
TORSDOF 8
