REMARK SMILES CCCCCCc1cc2c(cc1O)OC(N)=C(C#N)[C@H]2c1ccc2c(c1)OCO2
REMARK SMILES IDX 5 1 4 2 3 3 2 4 1 5 6 6 7 7 12 8 8 9 11 10 9 11 10 12 20 13
REMARK SMILES IDX 14 14 17 15 15 16 13 17 21 19 26 20 22 21 25 22 23 23 24 24
REMARK SMILES IDX 27 25 29 26 28 27 18 28 19 29 16 30
REMARK H PARENT 13 18 16 31 16 32
REMARK Flexibility Score: inf
ROOT
ATOM      1  C   UNL     1       2.003   0.782   5.699  1.00  0.00     0.005 C 
ENDROOT
BRANCH   1   2
ATOM      2  C   UNL     1       2.327   1.427   7.049  1.00  0.00     0.000 C 
BRANCH   2   3
ATOM      3  C   UNL     1       1.037   1.605   7.852  1.00  0.00    -0.000 C 
BRANCH   3   4
ATOM      4  C   UNL     1       1.361   2.249   9.201  1.00  0.00    -0.003 C 
ATOM      5  C   UNL     1       0.072   2.427  10.004  1.00  0.00     0.004 C 
ENDBRANCH   3   4
ENDBRANCH   2   3
ENDBRANCH   1   2
BRANCH   1   6
ATOM      6  C   UNL     1       3.293   0.604   4.896  1.00  0.00     0.039 C 
BRANCH   6   7
ATOM      7  C   UNL     1       2.974  -0.031   3.567  1.00  0.00    -0.006 A 
ATOM      8  C   UNL     1       2.773  -1.402   3.483  1.00  0.00     0.122 A 
ATOM      9  C   UNL     1       2.881   0.751   2.433  1.00  0.00     0.016 A 
ATOM     10  C   UNL     1       2.479  -1.983   2.261  1.00  0.00     0.094 A 
ATOM     11  C   UNL     1       2.587   0.173   1.210  1.00  0.00     0.008 A 
ATOM     12  C   UNL     1       2.385  -1.195   1.121  1.00  0.00     0.137 A 
ATOM     13  C   UNL     1       2.489   1.043  -0.015  1.00  0.00     0.100 C 
ATOM     14  O   UNL     1       2.096  -1.780  -0.068  1.00  0.00    -0.440 OA
ATOM     15  C   UNL     1       2.572   0.201  -1.257  1.00  0.00     0.101 C 
ATOM     16  C   UNL     1       2.375  -1.138  -1.215  1.00  0.00     0.205 C 
BRANCH   8  17
ATOM     17  O   UNL     1       2.865  -2.172   4.599  1.00  0.00    -0.508 OA
ATOM     18  H   UNL     1       2.215  -1.780   5.234  1.00  0.00     0.293 HD
ENDBRANCH   8  17
BRANCH  13  19
ATOM     19  C   UNL     1       1.176   1.782   0.000  1.00  0.00    -0.031 A 
ATOM     20  C   UNL     1       1.163   3.164   0.007  1.00  0.00     0.055 A 
ATOM     21  C   UNL     1      -0.013   1.076   0.008  1.00  0.00     0.009 A 
ATOM     22  C   UNL     1      -0.044   3.846   0.022  1.00  0.00     0.166 A 
ATOM     23  C   UNL     1      -1.220   1.749   0.017  1.00  0.00     0.051 A 
ATOM     24  C   UNL     1      -1.241   3.134   0.029  1.00  0.00     0.165 A 
ATOM     25  O   UNL     1      -0.329   5.180   0.031  1.00  0.00    -0.454 OA
ATOM     26  O   UNL     1      -2.277   4.024   0.043  1.00  0.00    -0.454 OA
ATOM     27  C   UNL     1      -1.701   5.277   0.456  1.00  0.00     0.468 C 
ENDBRANCH  13  19
BRANCH  15  28
ATOM     28  C   UNL     1       2.866   0.828  -2.511  1.00  0.00     0.101 C 
ATOM     29  N   UNL     1       3.100   1.325  -3.505  1.00  0.00    -0.193 NA
ENDBRANCH  15  28
BRANCH  16  30
ATOM     30  N   UNL     1       2.461  -1.861  -2.378  1.00  0.00    -0.369 N 
ATOM     31  H   UNL     1       2.316  -2.880  -2.376  1.00  0.00     0.159 HD
ATOM     32  H   UNL     1       2.675  -1.377  -3.262  1.00  0.00     0.159 HD
ENDBRANCH  16  30
ENDBRANCH   6   7
ENDBRANCH   1   6
TORSDOF 9
