REMARK SMILES Cc1cccc(N2N=C(C(=O)Nc3ccccc3C(=O)NCCc3ccccc3)CCC2=O)c1
REMARK SMILES IDX 13 1 14 2 15 3 16 4 17 5 18 6 12 7 10 8 11 9 9 11 7 12 8 13
REMARK SMILES IDX 32 14 33 15 31 16 30 17 6 18 1 19 2 20 34 21 3 22 4 23 5 24
REMARK SMILES IDX 19 25 20 26 21 27 22 29 23 30 24 31 29 32 25 33 28 34 26 35
REMARK SMILES IDX 27 36
REMARK H PARENT 12 10 21 28
REMARK Flexibility Score: inf
ROOT
ATOM      1  C   UNL     1       4.733   3.625  -1.088  1.00  0.00     0.054 A 
ATOM      2  C   UNL     1       5.766   2.860  -1.613  1.00  0.00     0.027 A 
ATOM      3  C   UNL     1       6.982   3.444  -1.901  1.00  0.00     0.002 A 
ATOM      4  C   UNL     1       7.187   4.794  -1.659  1.00  0.00     0.001 A 
ATOM      5  C   UNL     1       6.175   5.567  -1.134  1.00  0.00     0.016 A 
ATOM      6  C   UNL     1       4.936   4.991  -0.842  1.00  0.00     0.063 A 
ENDROOT
BRANCH   1   7
ATOM      7  N   UNL     1       3.504   3.038  -0.802  1.00  0.00    -0.320 N 
ATOM      8  C   UNL     1       3.439   1.731  -0.482  1.00  0.00     0.271 C 
ATOM      9  O   UNL     1       4.463   1.088  -0.341  1.00  0.00    -0.267 OA
ATOM     10  H   UNL     1       2.643   3.604  -0.834  1.00  0.00     0.170 HD
BRANCH   8  11
ATOM     11  C   UNL     1       2.136   1.083  -0.303  1.00  0.00     0.127 C 
ATOM     12  N   UNL     1      -0.210   1.193  -0.291  1.00  0.00    -0.200 N 
ATOM     13  N   UNL     1       1.050   1.777  -0.455  1.00  0.00    -0.164 NA
ATOM     14  C   UNL     1      -0.343   0.037   0.388  1.00  0.00     0.247 C 
ATOM     15  O   UNL     1      -1.439  -0.462   0.532  1.00  0.00    -0.273 OA
ATOM     16  C   UNL     1       0.876  -0.634   0.969  1.00  0.00     0.109 C 
ATOM     17  C   UNL     1       2.076  -0.378   0.054  1.00  0.00     0.074 C 
BRANCH  12  18
ATOM     18  C   UNL     1      -1.340   1.811  -0.840  1.00  0.00     0.069 A 
ATOM     19  C   UNL     1      -4.328   0.881  -2.960  1.00  0.00     0.044 C 
ATOM     20  C   UNL     1      -3.353   1.683  -2.138  1.00  0.00    -0.049 A 
ATOM     21  C   UNL     1      -2.239   1.071  -1.598  1.00  0.00     0.032 A 
ATOM     22  C   UNL     1      -3.574   3.032  -1.924  1.00  0.00     0.003 A 
ATOM     23  C   UNL     1      -2.682   3.771  -1.170  1.00  0.00     0.003 A 
ATOM     24  C   UNL     1      -1.568   3.164  -0.623  1.00  0.00     0.028 A 
ENDBRANCH  12  18
ENDBRANCH   8  11
ENDBRANCH   1   7
BRANCH   6  25
ATOM     25  C   UNL     1       3.849   5.814  -0.280  1.00  0.00     0.253 C 
ATOM     26  O   UNL     1       2.757   5.320  -0.072  1.00  0.00    -0.269 OA
ATOM     27  N   UNL     1       4.065   7.114   0.004  1.00  0.00    -0.352 N 
ATOM     28  H   UNL     1       4.989   7.532  -0.172  1.00  0.00     0.163 HD
BRANCH  27  29
ATOM     29  C   UNL     1       2.985   7.931   0.562  1.00  0.00     0.121 C 
BRANCH  29  30
ATOM     30  C   UNL     1       3.490   9.357   0.790  1.00  0.00     0.057 C 
BRANCH  30  31
ATOM     31  C   UNL     1       2.379  10.198   1.364  1.00  0.00    -0.046 A 
ATOM     32  C   UNL     1       2.215  10.284   2.734  1.00  0.00     0.004 A 
ATOM     33  C   UNL     1       1.527  10.887   0.521  1.00  0.00     0.004 A 
ATOM     34  C   UNL     1       1.196  11.056   3.261  1.00  0.00     0.000 A 
ATOM     35  C   UNL     1       0.505  11.654   1.048  1.00  0.00     0.000 A 
ATOM     36  C   UNL     1       0.341  11.741   2.418  1.00  0.00     0.000 A 
ENDBRANCH  30  31
ENDBRANCH  29  30
ENDBRANCH  27  29
ENDBRANCH   6  25
TORSDOF 7
