REMARK SMILES O=C(c1ccco1)N1CCC[C@H](Cn2cc(C(=O)N3CCc4ccccc4C3)c3ccccc32)C1
REMARK SMILES IDX 13 1 14 2 16 3 29 4 15 5 34 6 30 7 33 8 31 9 32 10 17 11
REMARK SMILES IDX 18 12 19 13 24 14 23 15 25 16 22 17 26 18 27 19 21 20 28 21
REMARK SMILES IDX 20 22 12 23 35 24 11 25 8 26 10 27 9 28 2 29 1 30 3 31 7 32
REMARK SMILES IDX 4 33 6 34 5 35
REMARK H PARENT
REMARK Flexibility Score: inf
ROOT
ATOM      1  C   UNL     1       1.959   8.758   1.346  1.00  0.00     0.127 C 
ENDROOT
BRANCH   1   2
ATOM      2  N   UNL     1       3.421   8.700   1.412  1.00  0.00    -0.346 N 
ATOM      3  C   UNL     1       5.473   8.629   2.266  1.00  0.00     0.065 A 
ATOM      4  C   UNL     1       5.577   8.606   0.795  1.00  0.00     0.012 A 
ATOM      5  C   UNL     1       4.143   8.686   2.559  1.00  0.00     0.100 A 
ATOM      6  C   UNL     1       4.258   8.648   0.316  1.00  0.00     0.049 A 
ATOM      7  C   UNL     1       6.643   8.552  -0.099  1.00  0.00     0.011 A 
ATOM      8  C   UNL     1       4.030   8.644  -1.056  1.00  0.00     0.027 A 
ATOM      9  C   UNL     1       6.397   8.544  -1.454  1.00  0.00     0.001 A 
ATOM     10  C   UNL     1       5.094   8.590  -1.929  1.00  0.00     0.002 A 
BRANCH   3  11
ATOM     11  C   UNL     1       6.585   8.597   3.227  1.00  0.00     0.256 C 
ATOM     12  O   UNL     1       7.586   7.953   2.977  1.00  0.00    -0.269 OA
BRANCH  11  13
ATOM     13  N   UNL     1       6.495   9.281   4.384  1.00  0.00    -0.334 N 
ATOM     14  C   UNL     1       6.604  13.880   6.351  1.00  0.00     0.000 A 
ATOM     15  C   UNL     1       7.513  12.851   6.230  1.00  0.00     0.004 A 
ATOM     16  C   UNL     1       5.303  13.704   5.916  1.00  0.00     0.000 A 
ATOM     17  C   UNL     1       7.135  11.634   5.675  1.00  0.00    -0.041 A 
ATOM     18  C   UNL     1       4.924  12.496   5.368  1.00  0.00     0.006 A 
ATOM     19  C   UNL     1       5.837  11.457   5.251  1.00  0.00    -0.025 A 
ATOM     20  C   UNL     1       8.185  10.560   5.564  1.00  0.00     0.057 C 
ATOM     21  C   UNL     1       5.353  10.159   4.665  1.00  0.00     0.155 C 
ATOM     22  C   UNL     1       7.541   9.183   5.415  1.00  0.00     0.125 C 
ENDBRANCH  11  13
ENDBRANCH   3  11
ENDBRANCH   1   2
BRANCH   1  23
ATOM     23  C   UNL     1       1.398   7.340   1.215  1.00  0.00     0.028 C 
ATOM     24  C   UNL     1       1.841   6.736  -0.121  1.00  0.00     0.125 C 
ATOM     25  C   UNL     1      -0.131   7.388   1.267  1.00  0.00     0.009 C 
ATOM     26  N   UNL     1       1.191   5.429  -0.288  1.00  0.00    -0.336 N 
ATOM     27  C   UNL     1      -0.691   5.967   1.170  1.00  0.00     0.022 C 
ATOM     28  C   UNL     1      -0.272   5.348  -0.172  1.00  0.00     0.120 C 
BRANCH  26  29
ATOM     29  C   UNL     1       1.921   4.327  -0.548  1.00  0.00     0.289 C 
ATOM     30  O   UNL     1       1.366   3.266  -0.764  1.00  0.00    -0.265 OA
BRANCH  29  31
ATOM     31  C   UNL     1       3.385   4.406  -0.570  1.00  0.00     0.191 A 
ATOM     32  O   UNL     1       4.120   5.533  -0.476  1.00  0.00    -0.459 OA
ATOM     33  C   UNL     1       4.244   3.351  -0.689  1.00  0.00     0.056 A 
ATOM     34  C   UNL     1       5.422   5.221  -0.526  1.00  0.00     0.196 A 
ATOM     35  C   UNL     1       5.543   3.882  -0.664  1.00  0.00     0.043 A 
ENDBRANCH  29  31
ENDBRANCH  26  29
ENDBRANCH   1  23
TORSDOF 6
