REMARK SMILES Cc1cc(-c2csc(N(C)C)n2)c(C)n1-c1ccc(S(N)(=O)=O)cc1
REMARK SMILES IDX 1 1 2 2 3 3 4 4 13 5 15 6 14 7 16 8 25 9 17 10 24 11 18 12
REMARK SMILES IDX 19 13 20 14 22 15 23 16 21 17 5 20 12 21 6 22 8 23 7 24 9 25
REMARK SMILES IDX 10 26 11 27
REMARK H PARENT 21 18 21 19
REMARK Flexibility Score: inf
ROOT
ATOM      1  C   UNL     1      -5.389   3.072   3.726  1.00  0.00     0.065 C 
ATOM      2  C   UNL     1      -4.429   3.237   4.876  1.00  0.00     0.021 A 
ATOM      3  C   UNL     1      -4.759   3.596   6.131  1.00  0.00     0.034 A 
ATOM      4  C   UNL     1      -3.562   3.637   6.890  1.00  0.00     0.022 A 
ATOM      5  C   UNL     1      -2.546   3.292   6.055  1.00  0.00     0.029 A 
ATOM      6  N   UNL     1      -3.078   3.043   4.822  1.00  0.00    -0.318 N 
ATOM      7  C   UNL     1      -1.088   3.199   6.426  1.00  0.00     0.065 C 
ENDROOT
BRANCH   6   8
ATOM      8  C   UNL     1      -2.355   2.659   3.684  1.00  0.00     0.046 A 
ATOM      9  C   UNL     1      -1.431   3.529   3.121  1.00  0.00     0.028 A 
ATOM     10  C   UNL     1      -2.560   1.408   3.119  1.00  0.00     0.028 A 
ATOM     11  C   UNL     1      -0.716   3.145   2.003  1.00  0.00     0.024 A 
ATOM     12  C   UNL     1      -1.846   1.032   1.999  1.00  0.00     0.024 A 
ATOM     13  C   UNL     1      -0.927   1.900   1.439  1.00  0.00     0.082 A 
BRANCH  13  14
ATOM     14  S   UNL     1      -0.017   1.417   0.010  1.00  0.00     0.238 S 
ATOM     15  O   UNL     1       0.002  -0.004   0.002  1.00  0.00    -0.207 OA
ATOM     16  O   UNL     1       1.172   2.195   0.003  1.00  0.00    -0.207 OA
BRANCH  14  17
ATOM     17  N   UNL     1      -0.897   1.885  -1.312  1.00  0.00    -0.225 NA
ATOM     18  H   UNL     1      -1.421   1.185  -1.857  1.00  0.00     0.137 HD
ATOM     19  H   UNL     1      -0.922   2.877  -1.590  1.00  0.00     0.137 HD
ENDBRANCH  14  17
ENDBRANCH  13  14
ENDBRANCH   6   8
BRANCH   4  20
ATOM     20  C   UNL     1      -3.440   3.990   8.327  1.00  0.00     0.085 A 
ATOM     21  N   UNL     1      -2.254   3.990   8.917  1.00  0.00    -0.220 NA
ATOM     22  C   UNL     1      -4.549   4.324   9.050  1.00  0.00     0.097 A 
ATOM     23  C   UNL     1      -2.124   4.302  10.195  1.00  0.00     0.185 A 
ATOM     24  S   UNL     1      -3.820   4.637  10.652  1.00  0.00    -0.105 S 
BRANCH  23  25
ATOM     25  N   UNL     1      -0.979   4.355  10.973  1.00  0.00    -0.354 N 
ATOM     26  C   UNL     1       0.323   4.036  10.382  1.00  0.00     0.145 C 
ATOM     27  C   UNL     1      -1.071   4.730  12.386  1.00  0.00     0.145 C 
ENDBRANCH  23  25
ENDBRANCH   4  20
TORSDOF 5
