REMARK SMILES CCSc1nc2n(n1)[C@@H](c1ccc(O)c(O)c1)[C@@H]1C(=O)CC(C)(C)C=C1N2
REMARK SMILES IDX 4 1 5 2 6 3 7 4 8 5 9 6 18 7 19 8 20 9 21 10 22 11 25 12
REMARK SMILES IDX 26 13 27 14 23 15 24 16 3 18 2 19 1 20 10 21 17 22 11 23
REMARK SMILES IDX 15 24 12 25 13 26 16 27 14 29
REMARK H PARENT 27 17 16 28 14 30
REMARK Flexibility Score: inf
ROOT
ATOM      1  C   UNL     1       7.161   0.698   1.347  1.00  0.00     0.210 A 
ATOM      2  N   UNL     1       7.690   1.797   1.904  1.00  0.00    -0.185 NA
ATOM      3  C   UNL     1       7.033   2.851   1.496  1.00  0.00     0.227 A 
ATOM      4  N   UNL     1       6.056   2.442   0.653  1.00  0.00    -0.222 N 
ATOM      5  N   UNL     1       6.157   1.050   0.575  1.00  0.00    -0.142 NA
ATOM      6  C   UNL     1       5.106   3.325  -0.024  1.00  0.00     0.158 C 
ATOM      7  C   UNL     1       5.056   4.668   0.718  1.00  0.00     0.132 C 
ATOM      8  C   UNL     1       4.387   5.695  -0.155  1.00  0.00     0.145 C 
ATOM      9  O   UNL     1       3.184   5.798  -0.169  1.00  0.00    -0.299 OA
ATOM     10  C   UNL     1       5.244   6.595  -1.017  1.00  0.00     0.087 C 
ATOM     11  C   UNL     1       6.268   7.276  -0.100  1.00  0.00    -0.009 C 
ATOM     12  C   UNL     1       6.988   6.232   0.704  1.00  0.00     0.002 C 
ATOM     13  C   UNL     1       6.459   5.096   1.065  1.00  0.00     0.027 C 
ATOM     14  N   UNL     1       7.229   4.189   1.823  1.00  0.00    -0.328 N 
ATOM     15  C   UNL     1       5.546   8.240   0.844  1.00  0.00     0.016 C 
ATOM     16  C   UNL     1       7.276   8.053  -0.949  1.00  0.00     0.016 C 
ATOM     17  H   UNL     1       7.883   4.493   2.559  1.00  0.00     0.169 HD
ENDROOT
BRANCH   1  18
ATOM     18  S   UNL     1       7.721  -0.952   1.609  1.00  0.00    -0.085 SA
BRANCH  18  19
ATOM     19  C   UNL     1       9.112  -0.766   2.758  1.00  0.00     0.075 C 
ATOM     20  C   UNL     1       9.700  -2.143   3.074  1.00  0.00     0.016 C 
ENDBRANCH  18  19
ENDBRANCH   1  18
BRANCH   6  21
ATOM     21  C   UNL     1       3.738   2.693  -0.018  1.00  0.00    -0.018 A 
ATOM     22  C   UNL     1       3.103   2.412  -1.214  1.00  0.00     0.056 A 
ATOM     23  C   UNL     1       3.121   2.396   1.183  1.00  0.00     0.010 A 
ATOM     24  C   UNL     1       1.845   1.831  -1.210  1.00  0.00     0.157 A 
ATOM     25  C   UNL     1       1.863   1.823   1.193  1.00  0.00     0.050 A 
ATOM     26  C   UNL     1       1.224   1.533  -0.001  1.00  0.00     0.157 A 
BRANCH  24  27
ATOM     27  O   UNL     1       1.219   1.555  -2.385  1.00  0.00    -0.504 OA
ATOM     28  H   UNL     1       0.353   2.031  -2.330  1.00  0.00     0.293 HD
ENDBRANCH  24  27
BRANCH  26  29
ATOM     29  O   UNL     1      -0.011   0.963   0.007  1.00  0.00    -0.504 OA
ATOM     30  H   UNL     1      -0.572   1.578   0.543  1.00  0.00     0.293 HD
ENDBRANCH  26  29
ENDBRANCH   6  21
TORSDOF 5
