REMARK SMILES COc1ccccc1NC(=O)N(CCc1ccccc1C)Cc1cc2cc(C)ccc2[nH]c1=O
REMARK SMILES IDX 12 1 22 2 23 3 28 4 27 5 26 6 29 7 25 8 30 9 31 10 24 11
REMARK SMILES IDX 32 12 33 13 34 15 13 16 14 17 15 18 20 19 16 20 19 21 21 22
REMARK SMILES IDX 17 23 18 24 10 25 11 26 9 27 8 29 3 30 7 31 4 32 6 33 5 34
REMARK SMILES IDX 2 35 1 36
REMARK H PARENT 32 14 9 28
REMARK Flexibility Score: inf
ROOT
ATOM      1  N   UNL     1       1.071  -2.747   1.345  1.00  0.00    -0.320 N 
ENDROOT
BRANCH   1   2
ATOM      2  C   UNL     1       1.186  -2.260  -0.032  1.00  0.00     0.162 C 
BRANCH   2   3
ATOM      3  C   UNL     1       1.222  -0.753  -0.030  1.00  0.00     0.037 A 
ATOM      4  C   UNL     1       4.868   4.226  -0.072  1.00  0.00     0.044 C 
ATOM      5  C   UNL     1       3.578   3.447  -0.057  1.00  0.00    -0.050 A 
ATOM      6  C   UNL     1       3.612   2.082  -0.058  1.00  0.00     0.013 A 
ATOM      7  C   UNL     1       2.366   4.124  -0.040  1.00  0.00     0.005 A 
ATOM      8  C   UNL     1       2.414   1.358  -0.043  1.00  0.00    -0.001 A 
ATOM      9  C   UNL     1       1.174   3.432  -0.026  1.00  0.00     0.027 A 
ATOM     10  C   UNL     1       1.184   2.041  -0.028  1.00  0.00     0.048 A 
ATOM     11  C   UNL     1       2.414  -0.106  -0.045  1.00  0.00     0.021 A 
ATOM     12  N   UNL     1       0.006   1.324  -0.014  1.00  0.00    -0.322 N 
ATOM     13  C   UNL     1       0.016  -0.021  -0.015  1.00  0.00     0.253 A 
ATOM     14  H   UNL     1      -0.893   1.825  -0.002  1.00  0.00     0.170 HD
ATOM     15  O   UNL     1      -1.044  -0.622  -0.002  1.00  0.00    -0.269 OA
ENDBRANCH   2   3
ENDBRANCH   1   2
BRANCH   1  16
ATOM     16  C   UNL     1       2.278  -3.021   2.128  1.00  0.00     0.126 C 
BRANCH  16  17
ATOM     17  C   UNL     1       2.695  -1.756   2.882  1.00  0.00     0.057 C 
BRANCH  17  18
ATOM     18  C   UNL     1       3.937  -2.038   3.688  1.00  0.00    -0.043 A 
ATOM     19  C   UNL     1       5.182  -1.937   3.096  1.00  0.00    -0.048 A 
ATOM     20  C   UNL     1       3.831  -2.393   5.020  1.00  0.00     0.004 A 
ATOM     21  C   UNL     1       6.321  -2.195   3.836  1.00  0.00     0.004 A 
ATOM     22  C   UNL     1       5.298  -1.544   1.646  1.00  0.00     0.044 C 
ATOM     23  C   UNL     1       4.969  -2.656   5.758  1.00  0.00     0.000 A 
ATOM     24  C   UNL     1       6.215  -2.554   5.166  1.00  0.00     0.000 A 
ENDBRANCH  17  18
ENDBRANCH  16  17
ENDBRANCH   1  16
BRANCH   1  25
ATOM     25  C   UNL     1      -0.146  -2.943   1.891  1.00  0.00     0.322 C 
ATOM     26  O   UNL     1      -1.148  -2.715   1.240  1.00  0.00    -0.248 OA
ATOM     27  N   UNL     1      -0.252  -3.391   3.157  1.00  0.00    -0.304 N 
ATOM     28  H   UNL     1       0.595  -3.649   3.685  1.00  0.00     0.172 HD
BRANCH  27  29
ATOM     29  C   UNL     1      -1.513  -3.507   3.756  1.00  0.00     0.085 A 
ATOM     30  C   UNL     1      -1.667  -3.249   5.117  1.00  0.00     0.142 A 
ATOM     31  C   UNL     1      -2.614  -3.872   2.995  1.00  0.00     0.030 A 
ATOM     32  C   UNL     1      -2.916  -3.365   5.704  1.00  0.00     0.048 A 
ATOM     33  C   UNL     1      -3.856  -3.989   3.589  1.00  0.00     0.002 A 
ATOM     34  C   UNL     1      -4.008  -3.734   4.940  1.00  0.00     0.004 A 
BRANCH  30  35
ATOM     35  O   UNL     1      -0.592  -2.885   5.867  1.00  0.00    -0.495 OA
ATOM     36  C   UNL     1      -0.824  -2.637   7.255  1.00  0.00     0.278 C 
ENDBRANCH  30  35
ENDBRANCH  27  29
ENDBRANCH   1  25
TORSDOF 8
