REMARK SMILES C#CC[NH2+][C@H]1C[C@@H]2c3[nH]c4ccccc4c3C[C@@H](C(=O)OC)N2[C@H](c2ccc(OC(F)(F)F)cc2)C1
REMARK SMILES IDX 18 1 17 2 16 3 15 4 14 5 13 6 12 7 11 8 10 9 9 10 8 11 7 12
REMARK SMILES IDX 24 13 36 14 5 15 6 16 23 17 19 19 20 20 21 21 22 22 25 23
REMARK SMILES IDX 35 24 26 25 34 26 27 27 28 28 29 29 30 30 31 31 32 32 33 33
REMARK SMILES IDX 4 34 3 37 2 38 1 39
REMARK H PARENT 9 18 4 35 4 36
REMARK Flexibility Score: inf
ROOT
ATOM      1  C   UNL     1       0.925  -1.943   5.581  1.00  0.00     0.173 C 
ATOM      2  C   UNL     1       1.242  -3.269   4.875  1.00  0.00     0.069 C 
ATOM      3  C   UNL     1       2.067  -4.115   5.812  1.00  0.00    -0.016 A 
ATOM      4  C   UNL     1       2.356  -5.531   5.753  1.00  0.00     0.003 A 
ATOM      5  C   UNL     1       1.988  -6.540   4.858  1.00  0.00     0.010 A 
ATOM      6  C   UNL     1       2.455  -7.804   5.119  1.00  0.00     0.001 A 
ATOM      7  C   UNL     1       3.255  -8.080   6.216  1.00  0.00     0.002 A 
ATOM      8  C   UNL     1       3.636  -7.102   7.118  1.00  0.00     0.026 A 
ATOM      9  C   UNL     1       3.176  -5.809   6.878  1.00  0.00     0.046 A 
ATOM     10  N   UNL     1       3.356  -4.634   7.551  1.00  0.00    -0.357 N 
ATOM     11  C   UNL     1       2.689  -3.626   6.910  1.00  0.00     0.037 A 
ATOM     12  C   UNL     1       2.618  -2.174   7.311  1.00  0.00     0.111 C 
ATOM     13  C   UNL     1       2.004   0.026   6.511  1.00  0.00     0.094 C 
ATOM     14  C   UNL     1       3.365   0.594   6.920  1.00  0.00     0.089 C 
ATOM     15  C   UNL     1       3.913  -0.198   8.110  1.00  0.00     0.187 C 
ATOM     16  C   UNL     1       4.003  -1.681   7.733  1.00  0.00     0.090 C 
ATOM     17  N   UNL     1       2.187  -1.390   6.133  1.00  0.00    -0.274 NA
ATOM     18  H   UNL     1       3.910  -4.524   8.412  1.00  0.00     0.166 HD
ENDROOT
BRANCH   1  19
ATOM     19  C   UNL     1      -0.077  -2.185   6.680  1.00  0.00     0.323 C 
ATOM     20  O   UNL     1       0.118  -1.739   7.785  1.00  0.00    -0.250 OA
BRANCH  19  21
ATOM     21  O   UNL     1      -1.188  -2.897   6.430  1.00  0.00    -0.468 OA
ATOM     22  C   UNL     1      -2.110  -3.091   7.535  1.00  0.00     0.282 C 
ENDBRANCH  19  21
ENDBRANCH   1  19
BRANCH  13  23
ATOM     23  C   UNL     1       1.477   0.789   5.322  1.00  0.00    -0.030 A 
ATOM     24  C   UNL     1       1.944   0.498   4.054  1.00  0.00     0.009 A 
ATOM     25  C   UNL     1       0.527   1.777   5.502  1.00  0.00     0.009 A 
ATOM     26  C   UNL     1       1.460   1.192   2.962  1.00  0.00     0.047 A 
ATOM     27  C   UNL     1       0.042   2.477   4.414  1.00  0.00     0.047 A 
ATOM     28  C   UNL     1       0.510   2.188   3.141  1.00  0.00     0.129 A 
BRANCH  28  29
ATOM     29  O   UNL     1       0.035   2.876   2.069  1.00  0.00    -0.406 OA
BRANCH  29  30
ATOM     30  C   UNL     1       0.562   2.525   0.788  1.00  0.00     0.573 C 
ATOM     31  F   UNL     1       0.287   1.179   0.523  1.00  0.00    -0.132 F 
ATOM     32  F   UNL     1       1.946   2.728   0.781  1.00  0.00    -0.132 F 
ATOM     33  F   UNL     1      -0.031   3.324  -0.195  1.00  0.00    -0.132 F 
ENDBRANCH  29  30
ENDBRANCH  28  29
ENDBRANCH  13  23
BRANCH  15  34
ATOM     34  N   UNL     1       3.006  -0.046   9.263  1.00  0.00    -0.334 N 
ATOM     35  H   UNL     1       2.033   0.008   8.928  1.00  0.00     0.347 HD
ATOM     36  H   UNL     1       3.103  -0.861   9.885  1.00  0.00     0.347 HD
BRANCH  34  37
ATOM     37  C   UNL     1       3.332   1.182  10.012  1.00  0.00     0.352 C 
BRANCH  37  38
ATOM     38  C   UNL     1       2.413   1.308  11.155  1.00  0.00    -0.047 C 
ATOM     39  C   UNL     1       1.680   1.409  12.067  1.00  0.00     0.010 C 
ENDBRANCH  37  38
ENDBRANCH  34  37
ENDBRANCH  15  34
TORSDOF 8
