REMARK SMILES C[C@@H]1CN(C(C)(C)CNC(=O)CSc2nn(-c3ccc(Cl)cc3)c(=S)s2)C[C@H](C)O1
REMARK SMILES IDX 9 1 10 2 11 3 8 5 5 6 6 7 7 8 4 9 29 10 28 11 30 12 27 13
REMARK SMILES IDX 2 14 3 15 1 16 12 17 13 18 14 19 26 20 15 21 24 22 16 23
REMARK SMILES IDX 25 24 17 25 23 26 18 27 22 28 19 29 20 30 21 31
REMARK H PARENT 9 4
REMARK Flexibility Score: inf
ROOT
ATOM      1  N   UNL     1       0.010  -0.012  -2.444  1.00  0.00    -0.354 N 
ATOM      2  C   UNL     1       0.463  -0.325  -3.674  1.00  0.00     0.230 C 
ATOM      3  O   UNL     1       1.457  -1.008  -3.798  1.00  0.00    -0.274 OA
ATOM      4  H   UNL     1      -0.835   0.568  -2.338  1.00  0.00     0.163 HD
ENDROOT
BRANCH   1   5
ATOM      5  C   UNL     1       0.718  -0.497  -1.257  1.00  0.00     0.137 C 
BRANCH   5   6
ATOM      6  C   UNL     1       0.002  -0.004   0.002  1.00  0.00     0.033 C 
ATOM      7  C   UNL     1      -0.019   1.526   0.010  1.00  0.00     0.030 C 
ATOM      8  C   UNL     1       0.742  -0.511   1.242  1.00  0.00     0.030 C 
BRANCH   6   9
ATOM      9  N   UNL     1      -1.376  -0.512   0.012  1.00  0.00    -0.291 NA
ATOM     10  C   UNL     1      -4.275  -0.156   2.432  1.00  0.00     0.040 C 
ATOM     11  C   UNL     1      -3.542  -0.559   1.151  1.00  0.00     0.129 C 
ATOM     12  O   UNL     1      -3.542  -1.984   1.028  1.00  0.00    -0.373 OA
ATOM     13  C   UNL     1      -2.096  -0.058   1.210  1.00  0.00     0.117 C 
ATOM     14  C   UNL     1      -2.849  -2.462  -0.128  1.00  0.00     0.129 C 
ATOM     15  C   UNL     1      -1.397  -1.980  -0.082  1.00  0.00     0.117 C 
ATOM     16  C   UNL     1      -2.881  -3.991  -0.147  1.00  0.00     0.040 C 
ENDBRANCH   6   9
ENDBRANCH   5   6
ENDBRANCH   1   5
BRANCH   2  17
ATOM     17  C   UNL     1      -0.266   0.174  -4.895  1.00  0.00     0.177 C 
BRANCH  17  18
ATOM     18  S   UNL     1       0.581  -0.409  -6.384  1.00  0.00    -0.084 SA
BRANCH  18  19
ATOM     19  C   UNL     1      -0.453   0.299  -7.622  1.00  0.00     0.174 A 
ATOM     20  S   UNL     1      -1.915   1.305  -7.424  1.00  0.00    -0.077 S 
ATOM     21  N   UNL     1      -0.345   0.230  -8.925  1.00  0.00    -0.148 NA
ATOM     22  C   UNL     1      -2.275   1.550  -9.157  1.00  0.00     0.184 A 
ATOM     23  N   UNL     1      -1.264   0.855  -9.735  1.00  0.00    -0.211 N 
ATOM     24  S   UNL     1      -3.551   2.427  -9.889  1.00  0.00    -0.046 S 
BRANCH  23  25
ATOM     25  C   UNL     1      -1.156   0.778 -11.128  1.00  0.00     0.067 A 
ATOM     26  C   UNL     1       0.096   0.754 -11.729  1.00  0.00     0.030 A 
ATOM     27  C   UNL     1      -2.301   0.722 -11.913  1.00  0.00     0.030 A 
ATOM     28  C   UNL     1       0.200   0.678 -13.104  1.00  0.00     0.023 A 
ATOM     29  C   UNL     1      -2.192   0.652 -13.288  1.00  0.00     0.023 A 
ATOM     30  C   UNL     1      -0.942   0.627 -13.883  1.00  0.00     0.041 A 
ATOM     31  Cl  UNL     1      -0.808   0.531 -15.612  1.00  0.00    -0.084 Cl
ENDBRANCH  23  25
ENDBRANCH  18  19
ENDBRANCH  17  18
ENDBRANCH   2  17
TORSDOF 7
