REMARK SMILES Cc1ccc(/C=C/c2nc(SCC(=O)Nc3nc(-c4cc(F)ccc4F)cs3)n[n-]2)o1
REMARK SMILES IDX 12 1 11 2 10 3 8 4 30 5 9 6 29 7 7 8 6 9 5 10 1 11 2 12
REMARK SMILES IDX 31 13 3 14 4 15 13 16 14 17 15 18 16 20 28 21 17 22 27 23
REMARK SMILES IDX 18 24 19 25 25 26 20 27 24 28 26 29 21 30 23 31 22 32
REMARK H PARENT 15 19
REMARK Flexibility Score: inf
ROOT
ATOM      1  C   UNL     1     -10.479   4.045   4.275  1.00  0.00     0.176 C 
ENDROOT
BRANCH   1   2
ATOM      2  S   UNL     1      -9.903   3.466   2.660  1.00  0.00    -0.101 SA
BRANCH   2   3
ATOM      3  C   UNL     1      -8.181   3.292   2.994  1.00  0.00     0.085 A 
ATOM      4  C   UNL     1      -6.037   2.896   2.817  1.00  0.00    -0.040 A 
ATOM      5  N   UNL     1      -6.321   3.309   4.035  1.00  0.00    -0.353 NA
ATOM      6  N   UNL     1      -7.223   2.879   2.112  1.00  0.00    -0.413 NA
ATOM      7  N   UNL     1      -7.580   3.541   4.137  1.00  0.00    -0.256 NA
BRANCH   4   8
ATOM      8  C   UNL     1      -4.715   2.530   2.306  1.00  0.00     0.004 C 
ATOM      9  C   UNL     1      -3.635   2.601   3.115  1.00  0.00     0.047 C 
BRANCH   9  10
ATOM     10  C   UNL     1      -2.313   2.236   2.605  1.00  0.00     0.127 A 
ATOM     11  C   UNL     1      -0.013   1.086   0.008  1.00  0.00     0.087 C 
ATOM     12  C   UNL     1      -0.718   1.572   1.248  1.00  0.00     0.101 A 
ATOM     13  O   UNL     1      -2.034   1.820   1.353  1.00  0.00    -0.462 OA
ATOM     14  C   UNL     1      -0.131   1.835   2.433  1.00  0.00     0.046 A 
ATOM     15  C   UNL     1      -1.144   2.262   3.312  1.00  0.00     0.050 A 
ENDBRANCH   9  10
ENDBRANCH   4   8
ENDBRANCH   2   3
ENDBRANCH   1   2
BRANCH   1  16
ATOM     16  C   UNL     1     -11.969   4.268   4.226  1.00  0.00     0.236 C 
ATOM     17  O   UNL     1     -12.580   4.057   3.201  1.00  0.00    -0.274 OA
ATOM     18  N   UNL     1     -12.621   4.703   5.323  1.00  0.00    -0.301 N 
ATOM     19  H   UNL     1     -12.102   4.882   6.194  1.00  0.00     0.172 HD
BRANCH  18  20
ATOM     20  C   UNL     1     -13.995   4.909   5.278  1.00  0.00     0.189 A 
ATOM     21  S   UNL     1     -15.129   4.679   3.915  1.00  0.00    -0.105 S 
ATOM     22  N   UNL     1     -14.809   5.321   6.231  1.00  0.00    -0.220 NA
ATOM     23  C   UNL     1     -16.615   5.176   4.776  1.00  0.00     0.097 A 
ATOM     24  C   UNL     1     -16.107   5.468   6.011  1.00  0.00     0.087 A 
BRANCH  24  25
ATOM     25  C   UNL     1     -17.002   5.938   7.096  1.00  0.00     0.040 A 
ATOM     26  C   UNL     1     -18.369   6.091   6.860  1.00  0.00     0.132 A 
ATOM     27  C   UNL     1     -16.480   6.234   8.354  1.00  0.00     0.052 A 
ATOM     28  C   UNL     1     -19.199   6.526   7.877  1.00  0.00     0.043 A 
ATOM     29  F   UNL     1     -18.881   5.811   5.642  1.00  0.00    -0.206 F 
ATOM     30  C   UNL     1     -17.318   6.673   9.362  1.00  0.00     0.124 A 
ATOM     31  C   UNL     1     -18.675   6.818   9.123  1.00  0.00     0.042 A 
ATOM     32  F   UNL     1     -16.814   6.960  10.581  1.00  0.00    -0.207 F 
ENDBRANCH  24  25
ENDBRANCH  18  20
ENDBRANCH   1  16
TORSDOF 7
