REMARK SMILES C=CCn1c(Cc2csc(NC(=O)c3cc4ccc(C(C)(C)C)cc4[nH]3)n2)n[nH]c1=S
REMARK SMILES IDX 10 1 27 2 7 3 8 4 9 5 11 6 12 7 13 8 14 10 19 11 24 12 18 13
REMARK SMILES IDX 25 14 17 15 16 16 26 17 15 18 20 20 21 21 22 22 23 23 6 24
REMARK SMILES IDX 5 25 4 26 28 27 30 28 29 29 31 30 3 32 2 33 1 34
REMARK H PARENT 11 9 26 19 29 31
REMARK Flexibility Score: inf
ROOT
ATOM      1  C   UNL     1       2.355   1.224  -0.014  1.00  0.00     0.189 A 
ATOM      2  N   UNL     1       3.579   1.715  -0.028  1.00  0.00    -0.225 NA
ATOM      3  C   UNL     1       4.633   0.923  -0.037  1.00  0.00     0.061 A 
ATOM      4  C   UNL     1       4.433  -0.418  -0.043  1.00  0.00     0.093 A 
ATOM      5  S   UNL     1       2.648  -0.487  -0.026  1.00  0.00    -0.105 S 
ENDROOT
BRANCH   1   6
ATOM      6  N   UNL     1       1.143   1.902   0.001  1.00  0.00    -0.297 N 
ATOM      7  C   UNL     1      -0.014   1.212   0.009  1.00  0.00     0.273 C 
ATOM      8  O   UNL     1       0.002  -0.004   0.002  1.00  0.00    -0.267 OA
ATOM      9  H   UNL     1       1.129   2.932   0.007  1.00  0.00     0.172 HD
BRANCH   7  10
ATOM     10  C   UNL     1      -1.297   1.930   0.019  1.00  0.00     0.105 A 
ATOM     11  C   UNL     1      -4.874   4.782   0.047  1.00  0.00    -0.041 A 
ATOM     12  C   UNL     1      -3.497   4.801   0.044  1.00  0.00     0.031 A 
ATOM     13  C   UNL     1      -5.566   3.577   0.044  1.00  0.00     0.005 A 
ATOM     14  C   UNL     1      -2.789   3.603   0.034  1.00  0.00     0.046 A 
ATOM     15  C   UNL     1      -4.893   2.390   0.035  1.00  0.00     0.010 A 
ATOM     16  C   UNL     1      -3.492   2.382   0.030  1.00  0.00     0.000 A 
ATOM     17  N   UNL     1      -1.447   3.303   0.027  1.00  0.00    -0.351 N 
ATOM     18  C   UNL     1      -2.526   1.348   0.015  1.00  0.00     0.042 A 
ATOM     19  H   UNL     1      -0.679   3.990   0.028  1.00  0.00     0.167 HD
BRANCH  11  20
ATOM     20  C   UNL     1      -5.638   6.081   0.056  1.00  0.00    -0.013 C 
ATOM     21  C   UNL     1      -7.140   5.789   0.059  1.00  0.00     0.016 C 
ATOM     22  C   UNL     1      -5.271   6.880   1.308  1.00  0.00     0.016 C 
ATOM     23  C   UNL     1      -5.279   6.892  -1.191  1.00  0.00     0.016 C 
ENDBRANCH  11  20
ENDBRANCH   7  10
ENDBRANCH   1   6
BRANCH   3  24
ATOM     24  C   UNL     1       6.028   1.494  -0.047  1.00  0.00     0.134 C 
BRANCH  24  25
ATOM     25  C   UNL     1       6.172   2.446  -1.207  1.00  0.00     0.137 A 
ATOM     26  N   UNL     1       5.908   3.793  -1.173  1.00  0.00    -0.300 N 
ATOM     27  N   UNL     1       6.571   2.128  -2.396  1.00  0.00    -0.159 NA
ATOM     28  C   UNL     1       6.154   4.304  -2.396  1.00  0.00     0.195 A 
ATOM     29  N   UNL     1       6.566   3.288  -3.183  1.00  0.00    -0.252 N 
ATOM     30  S   UNL     1       5.975   5.941  -2.865  1.00  0.00    -0.039 S 
ATOM     31  H   UNL     1       6.828   3.353  -4.177  1.00  0.00     0.193 HD
BRANCH  26  32
ATOM     32  C   UNL     1       5.439   4.546  -0.007  1.00  0.00     0.153 C 
BRANCH  32  33
ATOM     33  C   UNL     1       6.625   5.058   0.770  1.00  0.00    -0.013 C 
ATOM     34  C   UNL     1       6.732   6.337   1.032  1.00  0.00     0.006 C 
ENDBRANCH  32  33
ENDBRANCH  26  32
ENDBRANCH  24  25
ENDBRANCH   3  24
TORSDOF 7
