REMARK SMILES O=C(c1cc2ccccc2n1C[C@@H]1CCC[N@@H+]1Cc1ccc(F)cc1)N1CCC(O)CC1
REMARK SMILES IDX 12 1 11 2 7 3 6 4 8 5 5 6 9 7 10 8 4 9 3 10 2 11 1 12 26 13
REMARK SMILES IDX 32 14 27 15 31 16 28 17 29 18 30 19 13 21 14 22 17 23 15 24
REMARK SMILES IDX 16 25 18 27 19 28 25 29 20 30 24 31 21 32 22 33 23 34
REMARK H PARENT 30 20 17 26
REMARK Flexibility Score: inf
ROOT
ATOM      1  C   UNL     1       0.274   0.647   2.613  1.00  0.00     0.187 C 
ENDROOT
BRANCH   1   2
ATOM      2  N   UNL     1       0.772   1.429   3.747  1.00  0.00    -0.330 N 
ATOM      3  C   UNL     1       2.906   0.526   7.163  1.00  0.00     0.001 A 
ATOM      4  C   UNL     1       2.483   1.786   6.854  1.00  0.00     0.010 A 
ATOM      5  C   UNL     1       2.630  -0.540   6.316  1.00  0.00     0.002 A 
ATOM      6  C   UNL     1       1.763   2.010   5.673  1.00  0.00     0.000 A 
ATOM      7  C   UNL     1       1.923  -0.346   5.150  1.00  0.00     0.027 A 
ATOM      8  C   UNL     1       1.481   0.930   4.814  1.00  0.00     0.049 A 
ATOM      9  C   UNL     1       1.204   3.167   5.080  1.00  0.00     0.042 A 
ATOM     10  C   UNL     1       0.605   2.790   3.920  1.00  0.00     0.108 A 
BRANCH  10  11
ATOM     11  C   UNL     1      -0.101   3.687   2.994  1.00  0.00     0.270 C 
ATOM     12  O   UNL     1      -0.136   3.430   1.805  1.00  0.00    -0.267 OA
ATOM     13  N   UNL     1      -0.711   4.794   3.462  1.00  0.00    -0.337 N 
ATOM     14  C   UNL     1      -1.263   5.793   2.536  1.00  0.00     0.122 C 
ATOM     15  C   UNL     1      -0.837   5.024   4.907  1.00  0.00     0.122 C 
ATOM     16  C   UNL     1      -2.731   6.040   2.894  1.00  0.00     0.053 C 
ATOM     17  C   UNL     1      -2.310   5.281   5.239  1.00  0.00     0.053 C 
ATOM     18  C   UNL     1      -2.833   6.428   4.371  1.00  0.00     0.118 C 
BRANCH  18  19
ATOM     19  O   UNL     1      -4.199   6.690   4.701  1.00  0.00    -0.393 OA
ATOM     20  H   UNL     1      -4.266   6.942   5.656  1.00  0.00     0.210 HD
ENDBRANCH  18  19
ENDBRANCH  10  11
ENDBRANCH   1   2
BRANCH   1  21
ATOM     21  C   UNL     1      -1.184   0.257   2.863  1.00  0.00     0.204 C 
ATOM     22  C   UNL     1      -1.281  -0.638   4.116  1.00  0.00     0.073 C 
ATOM     23  N   UNL     1      -1.713  -0.523   1.732  1.00  0.00    -0.327 N 
ATOM     24  C   UNL     1      -2.366  -1.675   3.723  1.00  0.00     0.068 C 
ATOM     25  C   UNL     1      -2.080  -1.870   2.213  1.00  0.00     0.263 C 
ATOM     26  H   UNL     1      -2.544  -0.054   1.346  1.00  0.00     0.348 HD
BRANCH  23  27
ATOM     27  C   UNL     1      -0.691  -0.624   0.657  1.00  0.00     0.299 C 
BRANCH  27  28
ATOM     28  C   UNL     1      -1.326  -1.208  -0.579  1.00  0.00     0.006 A 
ATOM     29  C   UNL     1      -1.907  -0.376  -1.517  1.00  0.00     0.012 A 
ATOM     30  C   UNL     1      -1.321  -2.577  -0.776  1.00  0.00     0.012 A 
ATOM     31  C   UNL     1      -2.489  -0.911  -2.651  1.00  0.00     0.040 A 
ATOM     32  C   UNL     1      -1.906  -3.115  -1.906  1.00  0.00     0.040 A 
ATOM     33  C   UNL     1      -2.489  -2.282  -2.846  1.00  0.00     0.123 A 
ATOM     34  F   UNL     1      -3.057  -2.806  -3.954  1.00  0.00    -0.207 F 
ENDBRANCH  27  28
ENDBRANCH  23  27
ENDBRANCH   1  21
TORSDOF 6
