REMARK SMILES COC(=O)c1cn([C@@H]2C[C@@H](C(=O)NC(c3ccccc3)c3ccccc3)N(Cc3cccc(C)c3)C2)nn1
REMARK SMILES IDX 36 1 8 2 9 3 10 4 27 5 28 6 29 7 34 8 33 9 35 10 32 11 31 12
REMARK SMILES IDX 30 13 11 14 12 15 13 16 14 18 15 19 20 20 16 21 19 22 17 23
REMARK SMILES IDX 18 24 21 25 26 26 22 27 25 28 23 29 24 30 7 31 37 32 6 33
REMARK SMILES IDX 38 34 5 35 3 36 4 37 2 38 1 39
REMARK H PARENT 13 17
REMARK Flexibility Score: inf
ROOT
ATOM      1  C   UNL     1      -1.720   7.199   4.437  1.00  0.00     0.113 C 
ATOM      2  C   UNL     1      -2.720   6.048   4.708  1.00  0.00     0.125 C 
ATOM      3  C   UNL     1      -4.046   6.593   4.129  1.00  0.00     0.058 C 
ATOM      4  C   UNL     1      -3.875   8.123   4.103  1.00  0.00     0.149 C 
ATOM      5  N   UNL     1      -2.547   8.392   4.667  1.00  0.00    -0.285 NA
ENDROOT
BRANCH   5   6
ATOM      6  C   UNL     1      -1.940   9.588   4.008  1.00  0.00     0.121 C 
BRANCH   6   7
ATOM      7  C   UNL     1      -0.704  10.009   4.762  1.00  0.00    -0.034 A 
ATOM      8  C   UNL     1       0.225  12.315   7.604  1.00  0.00     0.044 C 
ATOM      9  C   UNL     1       0.331  11.314   6.482  1.00  0.00    -0.051 A 
ATOM     10  C   UNL     1      -0.801  10.931   5.788  1.00  0.00     0.008 A 
ATOM     11  C   UNL     1       1.562  10.781   6.145  1.00  0.00     0.003 A 
ATOM     12  C   UNL     1       1.659   9.864   5.116  1.00  0.00     0.001 A 
ATOM     13  C   UNL     1       0.526   9.477   4.425  1.00  0.00     0.005 A 
ENDBRANCH   6   7
ENDBRANCH   5   6
BRANCH   4  14
ATOM     14  C   UNL     1      -4.945   8.774   4.940  1.00  0.00     0.238 C 
ATOM     15  O   UNL     1      -4.638   9.438   5.907  1.00  0.00    -0.273 OA
ATOM     16  N   UNL     1      -6.244   8.617   4.615  1.00  0.00    -0.344 N 
ATOM     17  H   UNL     1      -6.505   8.052   3.794  1.00  0.00     0.164 HD
BRANCH  16  18
ATOM     18  C   UNL     1      -7.285   9.249   5.429  1.00  0.00     0.143 C 
BRANCH  18  19
ATOM     19  C   UNL     1      -8.518   9.462   4.590  1.00  0.00    -0.021 A 
ATOM     20  C   UNL     1      -9.250  10.628   4.720  1.00  0.00     0.006 A 
ATOM     21  C   UNL     1      -8.916   8.494   3.687  1.00  0.00     0.006 A 
ATOM     22  C   UNL     1     -10.381  10.823   3.951  1.00  0.00     0.000 A 
ATOM     23  C   UNL     1     -10.050   8.688   2.921  1.00  0.00     0.000 A 
ATOM     24  C   UNL     1     -10.782   9.853   3.052  1.00  0.00     0.000 A 
ENDBRANCH  18  19
BRANCH  18  25
ATOM     25  C   UNL     1      -7.619   8.358   6.598  1.00  0.00    -0.021 A 
ATOM     26  C   UNL     1      -7.850   8.911   7.844  1.00  0.00     0.006 A 
ATOM     27  C   UNL     1      -7.700   6.990   6.422  1.00  0.00     0.006 A 
ATOM     28  C   UNL     1      -8.157   8.093   8.916  1.00  0.00     0.000 A 
ATOM     29  C   UNL     1      -8.004   6.172   7.495  1.00  0.00     0.000 A 
ATOM     30  C   UNL     1      -8.233   6.724   8.741  1.00  0.00     0.000 A 
ENDBRANCH  18  25
ENDBRANCH  16  18
ENDBRANCH   4  14
BRANCH   2  31
ATOM     31  N   UNL     1      -2.310   4.829   4.006  1.00  0.00    -0.247 N 
ATOM     32  N   UNL     1      -2.531   3.509   4.423  1.00  0.00    -0.066 NA
ATOM     33  C   UNL     1      -1.643   4.762   2.837  1.00  0.00     0.147 A 
ATOM     34  N   UNL     1      -2.027   2.715   3.545  1.00  0.00    -0.123 NA
ATOM     35  C   UNL     1      -1.474   3.436   2.553  1.00  0.00     0.190 A 
BRANCH  35  36
ATOM     36  C   UNL     1      -0.797   2.888   1.364  1.00  0.00     0.360 C 
ATOM     37  O   UNL     1      -0.334   3.639   0.529  1.00  0.00    -0.244 OA
BRANCH  36  38
ATOM     38  O   UNL     1      -0.692   1.554   1.203  1.00  0.00    -0.464 OA
ATOM     39  C   UNL     1      -0.013   1.086   0.008  1.00  0.00     0.282 C 
ENDBRANCH  36  38
ENDBRANCH  35  36
ENDBRANCH   2  31
TORSDOF 9
