REMARK SMILES Cc1cc2cc([C@H](c3nnnn3C(C)(C)C)N3CCN(c4ccccc4)CC3)c(=O)[nH]c2cc1C
REMARK SMILES IDX 7 1 6 2 1 3 2 4 34 5 3 6 33 7 35 8 4 9 32 10 5 11 31 12
REMARK SMILES IDX 29 13 30 15 8 16 12 17 9 18 11 19 10 20 13 21 14 22 15 23
REMARK SMILES IDX 16 24 17 25 18 26 28 27 19 28 27 29 20 30 21 31 26 32 22 33
REMARK SMILES IDX 25 34 23 35 24 36
REMARK H PARENT 31 14
REMARK Flexibility Score: inf
ROOT
ATOM      1  C   UNL     1      -5.073   3.886   0.010  1.00  0.00     0.164 C 
ENDROOT
BRANCH   1   2
ATOM      2  C   UNL     1      -3.871   2.998  -0.179  1.00  0.00     0.043 A 
ATOM      3  C   UNL     1       2.280   2.833  -0.657  1.00  0.00     0.044 C 
ATOM      4  C   UNL     1       0.874   2.292  -0.610  1.00  0.00    -0.047 A 
ATOM      5  C   UNL     1       0.656   0.929  -0.750  1.00  0.00    -0.046 A 
ATOM      6  C   UNL     1      -0.175   3.149  -0.430  1.00  0.00     0.014 A 
ATOM      7  C   UNL     1      -0.622   0.413  -0.711  1.00  0.00     0.030 A 
ATOM      8  C   UNL     1       1.828   0.003  -0.947  1.00  0.00     0.044 C 
ATOM      9  C   UNL     1      -1.480   2.648  -0.387  1.00  0.00    -0.001 A 
ATOM     10  C   UNL     1      -1.706   1.266  -0.534  1.00  0.00     0.049 A 
ATOM     11  C   UNL     1      -2.627   3.538  -0.196  1.00  0.00     0.021 A 
ATOM     12  N   UNL     1      -2.995   0.779  -0.497  1.00  0.00    -0.322 N 
ATOM     13  C   UNL     1      -4.042   1.604  -0.326  1.00  0.00     0.253 A 
ATOM     14  H   UNL     1      -3.158  -0.233  -0.601  1.00  0.00     0.170 HD
ATOM     15  O   UNL     1      -5.168   1.138  -0.298  1.00  0.00    -0.269 OA
ENDBRANCH   1   2
BRANCH   1  16
ATOM     16  C   UNL     1      -5.740   3.556   1.320  1.00  0.00     0.173 A 
ATOM     17  N   UNL     1      -5.781   4.332   2.419  1.00  0.00    -0.222 N 
ATOM     18  N   UNL     1      -6.398   2.460   1.609  1.00  0.00    -0.112 NA
ATOM     19  N   UNL     1      -6.446   3.686   3.316  1.00  0.00    -0.044 NA
ATOM     20  N   UNL     1      -6.815   2.554   2.825  1.00  0.00    -0.024 NA
BRANCH  17  21
ATOM     21  C   UNL     1      -5.183   5.661   2.569  1.00  0.00     0.058 C 
ATOM     22  C   UNL     1      -5.835   6.628   1.579  1.00  0.00     0.036 C 
ATOM     23  C   UNL     1      -5.407   6.163   3.997  1.00  0.00     0.036 C 
ATOM     24  C   UNL     1      -3.681   5.579   2.287  1.00  0.00     0.036 C 
ENDBRANCH  17  21
ENDBRANCH   1  16
BRANCH   1  25
ATOM     25  N   UNL     1      -6.030   3.642  -1.091  1.00  0.00    -0.286 NA
ATOM     26  C   UNL     1      -5.377   3.894  -2.393  1.00  0.00     0.107 C 
ATOM     27  C   UNL     1      -7.209   4.520  -0.939  1.00  0.00     0.107 C 
ATOM     28  C   UNL     1      -6.373   3.580  -3.512  1.00  0.00     0.132 C 
ATOM     29  C   UNL     1      -8.204   4.206  -2.059  1.00  0.00     0.132 C 
ATOM     30  N   UNL     1      -7.561   4.432  -3.360  1.00  0.00    -0.369 N 
BRANCH  30  31
ATOM     31  C   UNL     1      -8.462   4.224  -4.407  1.00  0.00     0.037 A 
ATOM     32  C   UNL     1      -8.050   4.387  -5.723  1.00  0.00     0.026 A 
ATOM     33  C   UNL     1      -9.772   3.850  -4.134  1.00  0.00     0.026 A 
ATOM     34  C   UNL     1      -8.943   4.181  -6.756  1.00  0.00     0.002 A 
ATOM     35  C   UNL     1     -10.662   3.650  -5.171  1.00  0.00     0.002 A 
ATOM     36  C   UNL     1     -10.248   3.813  -6.481  1.00  0.00     0.000 A 
ENDBRANCH  30  31
ENDBRANCH   1  25
TORSDOF 5
