REMARK SMILES Cc1nc2ccccc2c(C)c1CC(=O)NNC(=O)c1nn(Cc2ccccc2)c(=O)c2ccccc12
REMARK SMILES IDX 17 1 18 2 19 3 16 5 14 6 15 7 13 9 12 10 11 11 10 12 9 13
REMARK SMILES IDX 2 14 4 15 8 16 3 17 1 18 5 19 7 20 6 21 20 22 21 23 37 24
REMARK SMILES IDX 22 25 32 26 36 27 30 28 33 29 35 30 31 31 34 32 23 33 24 34
REMARK SMILES IDX 29 35 25 36 28 37 26 38 27 39
REMARK H PARENT 17 4 16 8
REMARK Flexibility Score: inf
ROOT
ATOM      1  N   UNL     1      -2.394   1.150   0.020  1.00  0.00    -0.262 N 
ATOM      2  C   UNL     1      -3.571   1.808   0.029  1.00  0.00     0.290 C 
ATOM      3  O   UNL     1      -3.587   3.023   0.035  1.00  0.00    -0.266 OA
ATOM      4  H   UNL     1      -2.380   0.120   0.014  1.00  0.00     0.191 HD
ENDROOT
BRANCH   1   5
ATOM      5  N   UNL     1      -1.191   1.867   0.018  1.00  0.00    -0.267 N 
ATOM      6  C   UNL     1      -0.014   1.209   0.009  1.00  0.00     0.242 C 
ATOM      7  O   UNL     1       0.002  -0.004   0.002  1.00  0.00    -0.273 OA
ATOM      8  H   UNL     1      -1.205   2.897   0.023  1.00  0.00     0.191 HD
BRANCH   6   9
ATOM      9  C   UNL     1       1.280   1.980   0.001  1.00  0.00     0.139 C 
BRANCH   9  10
ATOM     10  C   UNL     1       2.439   1.016  -0.016  1.00  0.00    -0.014 A 
ATOM     11  C   UNL     1       2.378   1.061  -2.515  1.00  0.00     0.045 C 
ATOM     12  C   UNL     1       2.953   0.586  -1.206  1.00  0.00    -0.036 A 
ATOM     13  C   UNL     1       4.035  -0.314  -1.174  1.00  0.00     0.003 A 
ATOM     14  C   UNL     1       2.990   0.568   1.183  1.00  0.00     0.042 A 
ATOM     15  C   UNL     1       4.544  -0.734   0.080  1.00  0.00     0.071 A 
ATOM     16  C   UNL     1       4.616  -0.800  -2.357  1.00  0.00     0.010 A 
ATOM     17  N   UNL     1       3.994  -0.274   1.208  1.00  0.00    -0.253 NA
ATOM     18  C   UNL     1       2.413   1.060   2.485  1.00  0.00     0.067 C 
ATOM     19  C   UNL     1       5.625  -1.633   0.112  1.00  0.00     0.029 A 
ATOM     20  C   UNL     1       5.661  -1.670  -2.285  1.00  0.00     0.001 A 
ATOM     21  C   UNL     1       6.163  -2.084  -1.053  1.00  0.00     0.002 A 
ENDBRANCH   9  10
ENDBRANCH   6   9
ENDBRANCH   1   5
BRANCH   2  22
ATOM     22  C   UNL     1      -4.839   1.052   0.031  1.00  0.00     0.158 A 
ATOM     23  N   UNL     1      -4.830  -0.259   0.024  1.00  0.00    -0.163 NA
ATOM     24  C   UNL     1      -6.128   1.762   0.047  1.00  0.00     0.021 A 
ATOM     25  N   UNL     1      -5.883  -0.986   0.025  1.00  0.00    -0.224 N 
ATOM     26  C   UNL     1      -7.304   0.976   0.042  1.00  0.00     0.051 A 
ATOM     27  C   UNL     1      -6.225   3.149   0.050  1.00  0.00     0.011 A 
ATOM     28  C   UNL     1      -7.135  -0.484   0.033  1.00  0.00     0.274 A 
ATOM     29  C   UNL     1      -8.551   1.592   0.051  1.00  0.00     0.014 A 
ATOM     30  C   UNL     1      -7.470   3.741   0.059  1.00  0.00     0.001 A 
ATOM     31  O   UNL     1      -8.102  -1.223   0.033  1.00  0.00    -0.267 OA
ATOM     32  C   UNL     1      -8.624   2.969   0.060  1.00  0.00     0.001 A 
BRANCH  25  33
ATOM     33  C   UNL     1      -5.719  -2.442   0.015  1.00  0.00     0.184 C 
BRANCH  33  34
ATOM     34  C   UNL     1      -5.670  -2.933  -1.409  1.00  0.00    -0.026 A 
ATOM     35  C   UNL     1      -4.458  -3.025  -2.067  1.00  0.00     0.005 A 
ATOM     36  C   UNL     1      -6.837  -3.297  -2.055  1.00  0.00     0.005 A 
ATOM     37  C   UNL     1      -4.413  -3.475  -3.373  1.00  0.00     0.000 A 
ATOM     38  C   UNL     1      -6.793  -3.743  -3.362  1.00  0.00     0.000 A 
ATOM     39  C   UNL     1      -5.580  -3.834  -4.021  1.00  0.00     0.000 A 
ENDBRANCH  33  34
ENDBRANCH  25  33
ENDBRANCH   2  22
TORSDOF 6
