REMARK SMILES CCCN(C(=O)c1ccccc1Cc1ccccc1)c1c(N)n(Cc2ccccc2)c(=O)[nH]c1=O
REMARK SMILES IDX 5 1 6 2 4 3 3 4 2 5 1 6 20 7 34 8 21 9 33 10 35 11 23 12
REMARK SMILES IDX 31 13 32 15 22 16 24 19 25 20 30 21 26 22 29 23 27 24 28 25
REMARK SMILES IDX 7 26 12 27 8 28 11 29 9 30 10 31 13 32 14 33 19 34 15 35
REMARK SMILES IDX 18 36 16 37 17 38
REMARK H PARENT 33 14 22 17 22 18
REMARK Flexibility Score: inf
ROOT
ATOM      1  C   UNL     1      -0.249   0.895  -0.476  1.00  0.00     0.258 C 
ATOM      2  O   UNL     1      -0.306  -0.237  -0.915  1.00  0.00    -0.269 OA
ENDROOT
BRANCH   1   3
ATOM      3  N   UNL     1       0.843   1.302   0.201  1.00  0.00    -0.300 N 
BRANCH   3   4
ATOM      4  C   UNL     1       0.950   2.692   0.650  1.00  0.00     0.126 C 
BRANCH   4   5
ATOM      5  C   UNL     1       0.296   2.836   2.026  1.00  0.00     0.019 C 
ATOM      6  C   UNL     1       0.408   4.288   2.496  1.00  0.00     0.006 C 
ENDBRANCH   4   5
ENDBRANCH   3   4
BRANCH   3   7
ATOM      7  C   UNL     1       1.882   0.390   0.476  1.00  0.00     0.151 A 
ATOM      8  C   UNL     1       3.166   0.581  -0.069  1.00  0.00     0.279 A 
ATOM      9  C   UNL     1       1.660  -0.702   1.291  1.00  0.00     0.138 A 
ATOM     10  N   UNL     1       4.144  -0.304   0.207  1.00  0.00    -0.272 N 
ATOM     11  O   UNL     1       3.391   1.539  -0.788  1.00  0.00    -0.267 OA
ATOM     12  N   UNL     1       2.692  -1.577   1.536  1.00  0.00    -0.274 N 
ATOM     13  C   UNL     1       3.907  -1.366   0.998  1.00  0.00     0.330 A 
ATOM     14  H   UNL     1       5.083  -0.166  -0.192  1.00  0.00     0.175 HD
ATOM     15  O   UNL     1       4.808  -2.148   1.232  1.00  0.00    -0.248 OA
BRANCH   9  16
ATOM     16  N   UNL     1       0.421  -0.916   1.845  1.00  0.00    -0.383 N 
ATOM     17  H   UNL     1      -0.346  -0.256   1.651  1.00  0.00     0.158 HD
ATOM     18  H   UNL     1       0.258  -1.732   2.452  1.00  0.00     0.158 HD
ENDBRANCH   9  16
BRANCH  12  19
ATOM     19  C   UNL     1       2.469  -2.744   2.394  1.00  0.00     0.164 C 
BRANCH  19  20
ATOM     20  C   UNL     1       2.763  -2.379   3.826  1.00  0.00    -0.028 A 
ATOM     21  C   UNL     1       1.757  -1.882   4.633  1.00  0.00     0.005 A 
ATOM     22  C   UNL     1       4.038  -2.545   4.334  1.00  0.00     0.005 A 
ATOM     23  C   UNL     1       2.026  -1.547   5.947  1.00  0.00     0.000 A 
ATOM     24  C   UNL     1       4.309  -2.205   5.646  1.00  0.00     0.000 A 
ATOM     25  C   UNL     1       3.302  -1.709   6.453  1.00  0.00     0.000 A 
ENDBRANCH  19  20
ENDBRANCH  12  19
ENDBRANCH   3   7
ENDBRANCH   1   3
BRANCH   1  26
ATOM     26  C   UNL     1      -1.376   1.828  -0.690  1.00  0.00     0.043 A 
ATOM     27  C   UNL     1      -1.256   2.874  -1.606  1.00  0.00    -0.031 A 
ATOM     28  C   UNL     1      -2.567   1.663   0.019  1.00  0.00     0.014 A 
ATOM     29  C   UNL     1      -2.311   3.741  -1.802  1.00  0.00     0.005 A 
ATOM     30  C   UNL     1      -3.613   2.540  -0.182  1.00  0.00     0.001 A 
ATOM     31  C   UNL     1      -3.487   3.575  -1.091  1.00  0.00     0.000 A 
BRANCH  27  32
ATOM     32  C   UNL     1       0.024   3.056  -2.381  1.00  0.00     0.071 C 
BRANCH  32  33
ATOM     33  C   UNL     1      -0.024   2.219  -3.634  1.00  0.00    -0.044 A 
ATOM     34  C   UNL     1      -0.659   2.702  -4.763  1.00  0.00     0.004 A 
ATOM     35  C   UNL     1       0.571   0.972  -3.655  1.00  0.00     0.004 A 
ATOM     36  C   UNL     1      -0.702   1.935  -5.912  1.00  0.00     0.000 A 
ATOM     37  C   UNL     1       0.523   0.203  -4.803  1.00  0.00     0.000 A 
ATOM     38  C   UNL     1      -0.112   0.685  -5.932  1.00  0.00     0.000 A 
ENDBRANCH  32  33
ENDBRANCH  27  32
ENDBRANCH   1  26
TORSDOF 10
