REMARK SMILES CCOC(=O)c1c(C)oc2nc(COC(=O)c3cc(I)ccc3O)nc(N)c12
REMARK SMILES IDX 13 1 12 2 6 3 28 4 7 5 10 6 26 7 9 8 8 9 11 10 25 11 4 12
REMARK SMILES IDX 5 13 3 14 2 15 1 16 27 17 14 20 15 21 16 22 17 23 23 24
REMARK SMILES IDX 18 25 22 26 19 27 21 28 20 29 24 30
REMARK H PARENT 27 18 27 19 24 31
REMARK Flexibility Score: inf
ROOT
ATOM      1  C   UNL     1       1.360   7.753  -3.708  1.00  0.00     0.310 C 
ENDROOT
BRANCH   1   2
ATOM      2  C   UNL     1       1.323   6.560  -2.788  1.00  0.00     0.172 A 
ATOM      3  C   UNL     1       1.232   3.545   0.009  1.00  0.00     0.114 A 
ATOM      4  C   UNL     1       1.256   4.441  -1.160  1.00  0.00     0.097 A 
ATOM      5  C   UNL     1       1.268   4.362   1.098  1.00  0.00     0.119 A 
ATOM      6  C   UNL     1       1.311   5.741  -0.637  1.00  0.00     0.232 A 
ATOM      7  C   UNL     1       1.236   4.269  -2.548  1.00  0.00     0.139 A 
ATOM      8  O   UNL     1       1.320   5.641   0.703  1.00  0.00    -0.442 OA
ATOM      9  C   UNL     1       1.256   3.897   2.532  1.00  0.00     0.089 C 
ATOM     10  N   UNL     1       1.343   6.764  -1.488  1.00  0.00    -0.193 NA
ATOM     11  N   UNL     1       1.271   5.353  -3.319  1.00  0.00    -0.212 NA
BRANCH   3  12
ATOM     12  C   UNL     1       1.175   2.076   0.002  1.00  0.00     0.342 C 
ATOM     13  O   UNL     1       2.204   1.428  -0.011  1.00  0.00    -0.246 OA
BRANCH  12  14
ATOM     14  O   UNL     1      -0.018   1.448   0.010  1.00  0.00    -0.462 OA
BRANCH  14  15
ATOM     15  C   UNL     1       0.002  -0.004   0.002  1.00  0.00     0.230 C 
ATOM     16  C   UNL     1      -1.433  -0.534   0.013  1.00  0.00     0.049 C 
ENDBRANCH  14  15
ENDBRANCH  12  14
ENDBRANCH   3  12
BRANCH   7  17
ATOM     17  N   UNL     1       1.181   3.003  -3.105  1.00  0.00    -0.383 N 
ATOM     18  H   UNL     1       1.154   2.179  -2.486  1.00  0.00     0.158 HD
ATOM     19  H   UNL     1       1.166   2.883  -4.128  1.00  0.00     0.158 HD
ENDBRANCH   7  17
ENDBRANCH   1   2
BRANCH   1  20
ATOM     20  O   UNL     1       2.740   8.083  -4.016  1.00  0.00    -0.454 OA
BRANCH  20  21
ATOM     21  C   UNL     1       2.950   9.134  -4.833  1.00  0.00     0.342 C 
ATOM     22  O   UNL     1       2.006   9.757  -5.276  1.00  0.00    -0.246 OA
BRANCH  21  23
ATOM     23  C   UNL     1       4.325   9.527  -5.190  1.00  0.00     0.102 A 
ATOM     24  C   UNL     1       4.548  10.619  -6.040  1.00  0.00     0.130 A 
ATOM     25  C   UNL     1       5.415   8.816  -4.679  1.00  0.00     0.034 A 
ATOM     26  C   UNL     1       5.846  10.980  -6.369  1.00  0.00     0.048 A 
ATOM     27  C   UNL     1       6.697   9.186  -5.021  1.00  0.00     0.014 A 
ATOM     28  C   UNL     1       6.913  10.267  -5.861  1.00  0.00     0.018 A 
ATOM     29  I   UNL     1       8.329   8.114  -4.260  1.00  0.00    -0.044 I 
BRANCH  24  30
ATOM     30  O   UNL     1       3.499  11.320  -6.538  1.00  0.00    -0.507 OA
ATOM     31  H   UNL     1       2.991  11.616  -5.742  1.00  0.00     0.293 HD
ENDBRANCH  24  30
ENDBRANCH  21  23
ENDBRANCH  20  21
ENDBRANCH   1  20
TORSDOF 9
