REMARK SMILES CC(C)[C@H](NC(=O)C1CCCCC1)C(=O)NNc1nnc(-c2ccccc2)n1-c1ccccc1
REMARK SMILES IDX 14 1 15 2 16 3 4 5 2 6 1 7 3 8 5 9 6 10 7 12 8 13 13 14 9 15
REMARK SMILES IDX 12 16 10 17 11 18 17 19 18 21 28 22 19 23 21 24 20 25 29 26
REMARK SMILES IDX 34 27 30 28 33 29 31 30 32 31 22 32 27 33 23 34 26 35 24 36
REMARK SMILES IDX 25 37
REMARK H PARENT 16 4 5 11 17 20
REMARK Flexibility Score: inf
ROOT
ATOM      1  C   UNL     1      -1.139  -0.534  -0.892  1.00  0.00     0.261 C 
ATOM      2  O   UNL     1      -1.950   0.222  -1.385  1.00  0.00    -0.271 OA
ATOM      3  N   UNL     1      -1.384  -1.859  -0.864  1.00  0.00    -0.266 N 
ATOM      4  H   UNL     1      -0.664  -2.508  -0.516  1.00  0.00     0.191 HD
ENDROOT
BRANCH   1   5
ATOM      5  C   UNL     1       0.142   0.008  -0.312  1.00  0.00     0.175 C 
BRANCH   5   6
ATOM      6  C   UNL     1       0.024   0.073   1.212  1.00  0.00     0.015 C 
ATOM      7  C   UNL     1       1.362   0.514   1.809  1.00  0.00     0.010 C 
ATOM      8  C   UNL     1      -1.062   1.080   1.597  1.00  0.00     0.010 C 
ENDBRANCH   5   6
BRANCH   5   9
ATOM      9  N   UNL     1       0.387   1.353  -0.841  1.00  0.00    -0.344 N 
ATOM     10  C   UNL     1       1.643   1.837  -0.893  1.00  0.00     0.223 C 
ATOM     11  H   UNL     1      -0.401   1.927  -1.172  1.00  0.00     0.164 HD
ATOM     12  O   UNL     1       2.571   1.161  -0.503  1.00  0.00    -0.275 OA
BRANCH  10  13
ATOM     13  C   UNL     1       1.895   3.220  -1.437  1.00  0.00     0.078 C 
ATOM     14  C   UNL     1       3.394   3.523  -1.386  1.00  0.00     0.013 C 
ATOM     15  C   UNL     1       1.409   3.295  -2.886  1.00  0.00     0.013 C 
ATOM     16  C   UNL     1       3.650   4.926  -1.938  1.00  0.00     0.001 C 
ATOM     17  C   UNL     1       1.665   4.698  -3.438  1.00  0.00     0.001 C 
ATOM     18  C   UNL     1       3.164   5.001  -3.386  1.00  0.00     0.000 C 
ENDBRANCH  10  13
ENDBRANCH   5   9
ENDBRANCH   1   5
BRANCH   3  19
ATOM     19  N   UNL     1      -2.617  -2.353  -1.309  1.00  0.00    -0.265 N 
ATOM     20  H   UNL     1      -3.337  -1.703  -1.657  1.00  0.00     0.191 HD
BRANCH  19  21
ATOM     21  C   UNL     1      -2.869  -3.714  -1.280  1.00  0.00     0.248 A 
ATOM     22  N   UNL     1      -4.021  -4.334  -1.674  1.00  0.00    -0.260 N 
ATOM     23  N   UNL     1      -2.046  -4.649  -0.863  1.00  0.00    -0.109 NA
ATOM     24  C   UNL     1      -3.808  -5.679  -1.468  1.00  0.00     0.170 A 
ATOM     25  N   UNL     1      -2.598  -5.805  -0.973  1.00  0.00    -0.128 NA
BRANCH  22  26
ATOM     26  C   UNL     1      -5.178  -3.728  -2.185  1.00  0.00     0.051 A 
ATOM     27  C   UNL     1      -5.136  -3.067  -3.405  1.00  0.00     0.027 A 
ATOM     28  C   UNL     1      -6.369  -3.793  -1.475  1.00  0.00     0.027 A 
ATOM     29  C   UNL     1      -6.277  -2.471  -3.906  1.00  0.00     0.002 A 
ATOM     30  C   UNL     1      -7.505  -3.191  -1.979  1.00  0.00     0.002 A 
ATOM     31  C   UNL     1      -7.460  -2.533  -3.194  1.00  0.00     0.000 A 
ENDBRANCH  22  26
BRANCH  24  32
ATOM     32  C   UNL     1      -4.763  -6.773  -1.744  1.00  0.00     0.020 A 
ATOM     33  C   UNL     1      -4.551  -8.042  -1.201  1.00  0.00     0.012 A 
ATOM     34  C   UNL     1      -5.882  -6.541  -2.544  1.00  0.00     0.012 A 
ATOM     35  C   UNL     1      -5.446  -9.059  -1.462  1.00  0.00     0.001 A 
ATOM     36  C   UNL     1      -6.767  -7.568  -2.802  1.00  0.00     0.001 A 
ATOM     37  C   UNL     1      -6.551  -8.823  -2.260  1.00  0.00     0.000 A 
ENDBRANCH  24  32
ENDBRANCH  19  21
ENDBRANCH   3  19
TORSDOF 8
