REMARK SMILES O=C(NCc1ccc(N2CCOCC2)nc1)N[C@@H](c1ccc2c(c1)CCCC2)c1cccs1
REMARK SMILES IDX 17 1 2 2 1 3 3 4 18 7 29 8 31 9 32 10 30 11 33 12 19 13
REMARK SMILES IDX 24 14 20 15 23 16 21 17 22 18 25 19 28 20 26 21 27 22 4 23
REMARK SMILES IDX 5 24 16 25 6 26 15 27 7 28 8 29 9 30 14 31 10 32 13 33 11 34
REMARK SMILES IDX 12 35
REMARK H PARENT 17 5 3 6
REMARK Flexibility Score: inf
ROOT
ATOM      1  N   UNL     1      -3.478   1.632  -0.863  1.00  0.00    -0.326 N 
ATOM      2  C   UNL     1      -4.477   0.921  -1.424  1.00  0.00     0.315 C 
ATOM      3  O   UNL     1      -4.576  -0.270  -1.200  1.00  0.00    -0.249 OA
ATOM      4  N   UNL     1      -5.366   1.531  -2.233  1.00  0.00    -0.334 N 
ATOM      5  H   UNL     1      -3.394   2.641  -1.052  1.00  0.00     0.166 HD
ATOM      6  H   UNL     1      -5.282   2.540  -2.422  1.00  0.00     0.165 HD
ENDROOT
BRANCH   1   7
ATOM      7  C   UNL     1      -2.512   0.969   0.017  1.00  0.00     0.155 C 
BRANCH   7   8
ATOM      8  C   UNL     1      -3.065   0.912   1.417  1.00  0.00     0.032 A 
ATOM      9  C   UNL     1      -3.581   0.077   3.562  1.00  0.00     0.012 A 
ATOM     10  C   UNL     1      -4.210   1.246   3.836  1.00  0.00     0.065 A 
ATOM     11  C   UNL     1      -2.999  -0.097   2.321  1.00  0.00     0.018 A 
ATOM     12  S   UNL     1      -3.982   2.153   2.316  1.00  0.00    -0.146 S 
ENDBRANCH   7   8
BRANCH   7  13
ATOM     13  C   UNL     1      -1.220   1.743   0.017  1.00  0.00    -0.020 A 
ATOM     14  C   UNL     1      -0.013   1.076   0.008  1.00  0.00     0.010 A 
ATOM     15  C   UNL     1      -1.239   3.126   0.033  1.00  0.00     0.006 A 
ATOM     16  C   UNL     1       1.184   1.781   0.000  1.00  0.00    -0.044 A 
ATOM     17  C   UNL     1      -0.052   3.828   0.025  1.00  0.00     0.004 A 
ATOM     18  C   UNL     1       1.165   3.157   0.006  1.00  0.00    -0.045 A 
ATOM     19  C   UNL     1       2.465   0.989  -0.009  1.00  0.00     0.036 C 
ATOM     20  C   UNL     1       2.422   3.986  -0.010  1.00  0.00     0.036 C 
ATOM     21  C   UNL     1       3.636   1.866  -0.446  1.00  0.00     0.005 C 
ATOM     22  C   UNL     1       3.627   3.143   0.403  1.00  0.00     0.005 C 
ENDBRANCH   7  13
ENDBRANCH   1   7
BRANCH   4  23
ATOM     23  C   UNL     1      -6.451   0.759  -2.843  1.00  0.00     0.155 C 
BRANCH  23  24
ATOM     24  C   UNL     1      -7.298   1.669  -3.695  1.00  0.00    -0.010 A 
ATOM     25  C   UNL     1      -8.387   2.320  -3.152  1.00  0.00     0.119 A 
ATOM     26  C   UNL     1      -6.993   1.857  -5.037  1.00  0.00     0.011 A 
ATOM     27  N   UNL     1      -9.132   3.123  -3.887  1.00  0.00    -0.239 NA
ATOM     28  C   UNL     1      -7.795   2.700  -5.784  1.00  0.00     0.047 A 
ATOM     29  C   UNL     1      -8.874   3.328  -5.170  1.00  0.00     0.128 A 
BRANCH  29  30
ATOM     30  N   UNL     1      -9.689   4.178  -5.909  1.00  0.00    -0.352 N 
ATOM     31  C   UNL     1     -10.764   4.734  -5.075  1.00  0.00     0.146 C 
ATOM     32  C   UNL     1      -8.902   5.253  -6.530  1.00  0.00     0.146 C 
ATOM     33  C   UNL     1     -11.670   5.614  -5.940  1.00  0.00     0.181 C 
ATOM     34  C   UNL     1      -9.827   6.128  -7.381  1.00  0.00     0.181 C 
ATOM     35  O   UNL     1     -10.883   6.635  -6.560  1.00  0.00    -0.378 OA
ENDBRANCH  29  30
ENDBRANCH  23  24
ENDBRANCH   4  23
TORSDOF 6
