REMARK SMILES COc1cccc(N2C(=O)/C(=C\c3ccc(C(C)C)cc3)N=C2SCc2ccc(C(N)=O)cc2)c1
REMARK SMILES IDX 24 1 23 2 12 3 11 4 22 5 9 6 10 7 8 8 13 9 16 10 20 11 15 12
REMARK SMILES IDX 21 13 14 14 17 15 18 16 19 17 7 18 35 19 6 20 3 21 5 22 4 23
REMARK SMILES IDX 2 24 1 25 25 26 26 27 34 28 27 29 33 30 28 31 29 32 30 33
REMARK SMILES IDX 32 34 31 35
REMARK H PARENT 31 36 31 37
REMARK Flexibility Score: inf
ROOT
ATOM      1  S   UNL     1       0.237   0.021   1.212  1.00  0.00    -0.083 SA
ENDROOT
BRANCH   1   2
ATOM      2  C   UNL     1       0.114   1.723   0.773  1.00  0.00     0.176 C 
ATOM      3  C   UNL     1       1.424   4.795  -0.279  1.00  0.00     0.042 C 
ATOM      4  C   UNL     1       0.677   3.730   0.135  1.00  0.00     0.132 C 
ATOM      5  N   UNL     1       1.123   2.466   0.402  1.00  0.00    -0.218 NA
ATOM      6  C   UNL     1      -0.777   3.708   0.387  1.00  0.00     0.283 C 
ATOM      7  O   UNL     1      -1.560   4.632   0.269  1.00  0.00    -0.266 OA
ATOM      8  N   UNL     1      -1.057   2.442   0.770  1.00  0.00    -0.254 N 
BRANCH   3   9
ATOM      9  C   UNL     1       0.763   6.042  -0.683  1.00  0.00    -0.023 A 
ATOM     10  C   UNL     1      -0.484   8.395  -1.447  1.00  0.00    -0.045 A 
ATOM     11  C   UNL     1      -1.066   7.177  -1.754  1.00  0.00     0.004 A 
ATOM     12  C   UNL     1       0.717   8.444  -0.760  1.00  0.00     0.004 A 
ATOM     13  C   UNL     1      -0.449   6.001  -1.383  1.00  0.00     0.008 A 
ATOM     14  C   UNL     1       1.344   7.278  -0.376  1.00  0.00     0.008 A 
BRANCH  10  15
ATOM     15  C   UNL     1      -1.162   9.675  -1.862  1.00  0.00     0.013 C 
ATOM     16  C   UNL     1      -1.306   9.705  -3.385  1.00  0.00     0.012 C 
ATOM     17  C   UNL     1      -2.548   9.750  -1.217  1.00  0.00     0.012 C 
ENDBRANCH  10  15
ENDBRANCH   3   9
BRANCH   8  18
ATOM     18  C   UNL     1      -2.324   1.949   1.110  1.00  0.00     0.055 A 
ATOM     19  C   UNL     1      -2.947   1.016   0.295  1.00  0.00     0.073 A 
ATOM     20  C   UNL     1      -2.960   2.399   2.260  1.00  0.00     0.027 A 
ATOM     21  C   UNL     1      -4.199   0.527   0.636  1.00  0.00     0.120 A 
ATOM     22  C   UNL     1      -4.209   1.913   2.594  1.00  0.00     0.006 A 
ATOM     23  C   UNL     1      -4.830   0.979   1.786  1.00  0.00     0.046 A 
BRANCH  21  24
ATOM     24  O   UNL     1      -4.810  -0.392  -0.158  1.00  0.00    -0.497 OA
ATOM     25  C   UNL     1      -6.100  -0.848   0.253  1.00  0.00     0.278 C 
ENDBRANCH  21  24
ENDBRANCH   8  18
ENDBRANCH   1   2
BRANCH   1  26
ATOM     26  C   UNL     1       2.014  -0.235   0.982  1.00  0.00     0.113 C 
BRANCH  26  27
ATOM     27  C   UNL     1       2.362  -1.664   1.310  1.00  0.00    -0.038 A 
ATOM     28  C   UNL     1       2.328  -2.627   0.316  1.00  0.00     0.005 A 
ATOM     29  C   UNL     1       2.719  -2.007   2.602  1.00  0.00     0.005 A 
ATOM     30  C   UNL     1       2.646  -3.937   0.610  1.00  0.00     0.014 A 
ATOM     31  C   UNL     1       3.033  -3.315   2.910  1.00  0.00     0.014 A 
ATOM     32  C   UNL     1       3.002  -4.291   1.912  1.00  0.00     0.039 A 
BRANCH  32  33
ATOM     33  C   UNL     1       3.344  -5.693   2.234  1.00  0.00     0.248 C 
ATOM     34  O   UNL     1       3.315  -6.540   1.363  1.00  0.00    -0.270 OA
ATOM     35  N   UNL     1       3.687  -6.031   3.492  1.00  0.00    -0.366 N 
ATOM     36  H   UNL     1       3.711  -5.313   4.230  1.00  0.00     0.159 HD
ATOM     37  H   UNL     1       3.925  -7.008   3.716  1.00  0.00     0.159 HD
ENDBRANCH  32  33
ENDBRANCH  26  27
ENDBRANCH   1  26
TORSDOF 8
