REMARK SMILES C=C(C)CNC(=S)NNc1nc2c(c(=O)n1-c1ccccc1C)C1(CCCCC1)Cc1ccccc1-2
REMARK SMILES IDX 8 1 9 3 10 5 16 6 14 7 11 8 15 9 13 10 12 11 24 12 36 13
REMARK SMILES IDX 30 14 29 15 25 16 31 17 35 18 28 19 26 20 32 21 34 22 27 23
REMARK SMILES IDX 33 24 17 25 23 26 22 27 21 28 18 29 20 30 19 31 6 32 7 33
REMARK SMILES IDX 5 34 4 36 2 37 1 38 3 39
REMARK H PARENT 8 2 9 4 5 35
REMARK Flexibility Score: inf
ROOT
ATOM      1  N   UNL     1      -2.990   0.702   3.602  1.00  0.00    -0.274 N 
ATOM      2  H   UNL     1      -3.868   0.164   3.618  1.00  0.00     0.190 HD
ENDROOT
BRANCH   1   3
ATOM      3  N   UNL     1      -2.409   1.056   2.378  1.00  0.00    -0.267 N 
ATOM      4  H   UNL     1      -1.531   1.595   2.361  1.00  0.00     0.191 HD
BRANCH   3   5
ATOM      5  C   UNL     1      -3.008   0.687   1.202  1.00  0.00     0.230 A 
ATOM      6  N   UNL     1      -2.429   1.040   0.020  1.00  0.00    -0.245 N 
ATOM      7  C   UNL     1      -3.017   0.707  -1.150  1.00  0.00     0.263 A 
ATOM      8  N   UNL     1      -4.130  -0.001   1.240  1.00  0.00    -0.212 NA
ATOM      9  O   UNL     1      -2.515   1.034  -2.214  1.00  0.00    -0.268 OA
ATOM     10  C   UNL     1      -4.211  -0.025  -1.116  1.00  0.00     0.051 A 
ATOM     11  C   UNL     1      -4.742  -0.381   0.114  1.00  0.00     0.084 A 
ATOM     12  C   UNL     1      -4.912  -0.405  -2.391  1.00  0.00     0.007 C 
ATOM     13  C   UNL     1      -5.995  -1.169   0.149  1.00  0.00     0.004 A 
ATOM     14  C   UNL     1      -5.572  -1.776  -2.251  1.00  0.00     0.048 C 
ATOM     15  C   UNL     1      -5.982   0.642  -2.715  1.00  0.00     0.012 C 
ATOM     16  C   UNL     1      -3.892  -0.451  -3.534  1.00  0.00     0.012 C 
ATOM     17  C   UNL     1      -6.410  -1.837  -1.002  1.00  0.00    -0.038 A 
ATOM     18  C   UNL     1      -6.756  -1.245   1.313  1.00  0.00     0.010 A 
ATOM     19  C   UNL     1      -6.692   0.262  -4.015  1.00  0.00     0.001 C 
ATOM     20  C   UNL     1      -4.601  -0.833  -4.834  1.00  0.00     0.001 C 
ATOM     21  C   UNL     1      -7.589  -2.555  -0.988  1.00  0.00     0.004 A 
ATOM     22  C   UNL     1      -7.930  -1.972   1.316  1.00  0.00     0.001 A 
ATOM     23  C   UNL     1      -5.674   0.209  -5.156  1.00  0.00     0.000 C 
ATOM     24  C   UNL     1      -8.346  -2.622   0.168  1.00  0.00     0.000 A 
BRANCH   6  25
ATOM     25  C   UNL     1      -1.224   1.754   0.017  1.00  0.00     0.055 A 
ATOM     26  C   UNL     1      -2.551   3.883   0.048  1.00  0.00     0.046 C 
ATOM     27  C   UNL     1      -1.239   3.143   0.031  1.00  0.00    -0.027 A 
ATOM     28  C   UNL     1      -0.049   3.845   0.023  1.00  0.00     0.005 A 
ATOM     29  C   UNL     1      -0.013   1.076   0.008  1.00  0.00     0.027 A 
ATOM     30  C   UNL     1       1.155   3.166   0.007  1.00  0.00     0.000 A 
ATOM     31  C   UNL     1       1.173   1.783   0.000  1.00  0.00     0.002 A 
ENDBRANCH   6  25
ENDBRANCH   3   5
ENDBRANCH   1   3
BRANCH   1  32
ATOM     32  C   UNL     1      -2.401   1.065   4.758  1.00  0.00     0.185 C 
ATOM     33  S   UNL     1      -3.112   0.632   6.254  1.00  0.00    -0.039 S 
BRANCH  32  34
ATOM     34  N   UNL     1      -1.252   1.770   4.737  1.00  0.00    -0.358 N 
ATOM     35  H   UNL     1      -0.825   2.030   3.837  1.00  0.00     0.163 HD
BRANCH  34  36
ATOM     36  C   UNL     1      -0.612   2.165   5.994  1.00  0.00     0.145 C 
BRANCH  36  37
ATOM     37  C   UNL     1       0.648   2.936   5.695  1.00  0.00    -0.061 C 
ATOM     38  C   UNL     1       0.621   4.246   5.661  1.00  0.00     0.009 C 
ATOM     39  C   UNL     1       1.938   2.202   5.436  1.00  0.00     0.041 C 
ENDBRANCH  36  37
ENDBRANCH  34  36
ENDBRANCH  32  34
ENDBRANCH   1  32
TORSDOF 7
