REMARK SMILES O=C1NC(=O)c2ccccc2/C1=C\NNC(=O)c1ccc(COc2ccccc2-c2ccccc2)cc1
REMARK SMILES IDX 21 1 20 2 19 3 18 4 37 5 36 6 22 7 23 8 24 9 29 10 28 11
REMARK SMILES IDX 25 12 27 13 26 14 30 15 33 16 34 17 32 18 35 19 31 20 16 21
REMARK SMILES IDX 17 22 15 23 14 25 13 27 12 28 2 29 11 30 3 31 1 32 6 33
REMARK SMILES IDX 10 34 4 35 7 37 9 38 5 39 8 40
REMARK H PARENT 15 24 14 26 3 36
REMARK Flexibility Score: inf
ROOT
ATOM      1  C   UNL     1       2.373   0.015  -0.103  1.00  0.00    -0.011 A 
ATOM      2  C   UNL     1       1.185  -0.688  -0.006  1.00  0.00     0.008 A 
ATOM      3  C   UNL     1      -0.016  -0.013   0.053  1.00  0.00     0.014 A 
ATOM      4  C   UNL     1      -0.032   1.382   0.013  1.00  0.00     0.041 A 
ATOM      5  C   UNL     1       1.170   2.085  -0.086  1.00  0.00     0.014 A 
ATOM      6  C   UNL     1       2.365   1.397  -0.143  1.00  0.00     0.008 A 
ENDROOT
BRANCH   1   7
ATOM      7  C   UNL     1       3.682  -0.730  -0.167  1.00  0.00     0.265 C 
BRANCH   7   8
ATOM      8  O   UNL     1       4.008  -1.004  -1.531  1.00  0.00    -0.488 OA
BRANCH   8   9
ATOM      9  C   UNL     1       5.167  -1.675  -1.765  1.00  0.00     0.127 A 
ATOM     10  C   UNL     1       5.549  -1.977  -3.075  1.00  0.00     0.024 A 
ATOM     11  C   UNL     1       6.739  -2.665  -3.305  1.00  0.00     0.012 A 
ATOM     12  C   UNL     1       5.976  -2.056  -0.706  1.00  0.00     0.047 A 
ATOM     13  C   UNL     1       7.532  -3.043  -2.241  1.00  0.00     0.001 A 
ATOM     14  C   UNL     1       7.151  -2.742  -0.946  1.00  0.00     0.004 A 
BRANCH  10  15
ATOM     15  C   UNL     1       4.692  -1.569  -4.215  1.00  0.00    -0.015 A 
ATOM     16  C   UNL     1       3.093  -0.806  -6.342  1.00  0.00     0.000 A 
ATOM     17  C   UNL     1       2.537  -1.478  -5.268  1.00  0.00     0.001 A 
ATOM     18  C   UNL     1       4.445  -0.513  -6.357  1.00  0.00     0.001 A 
ATOM     19  C   UNL     1       3.331  -1.866  -4.208  1.00  0.00     0.009 A 
ATOM     20  C   UNL     1       5.247  -0.891  -5.299  1.00  0.00     0.009 A 
ENDBRANCH  10  15
ENDBRANCH   8   9
ENDBRANCH   7   8
ENDBRANCH   1   7
BRANCH   4  21
ATOM     21  C   UNL     1      -1.316   2.113   0.069  1.00  0.00     0.269 C 
ATOM     22  O   UNL     1      -2.361   1.498   0.150  1.00  0.00    -0.267 OA
ATOM     23  N   UNL     1      -1.327   3.460   0.030  1.00  0.00    -0.266 N 
ATOM     24  H   UNL     1      -0.442   3.981  -0.039  1.00  0.00     0.191 HD
BRANCH  23  25
ATOM     25  N   UNL     1      -2.545   4.152   0.083  1.00  0.00    -0.305 N 
ATOM     26  H   UNL     1      -3.431   3.631   0.152  1.00  0.00     0.187 HD
BRANCH  25  27
ATOM     27  C   UNL     1      -2.556   5.510   0.044  1.00  0.00     0.115 C 
ATOM     28  C   UNL     1      -3.752   6.186  -0.051  1.00  0.00     0.065 C 
ATOM     29  C   UNL     1      -3.897   7.544   0.485  1.00  0.00     0.260 C 
ATOM     30  C   UNL     1      -4.930   5.562  -0.689  1.00  0.00     0.001 A 
ATOM     31  N   UNL     1      -5.065   8.199   0.385  1.00  0.00    -0.288 N 
ATOM     32  O   UNL     1      -2.947   8.085   1.022  1.00  0.00    -0.269 OA
ATOM     33  C   UNL     1      -6.126   6.308  -0.753  1.00  0.00     0.048 A 
ATOM     34  C   UNL     1      -4.882   4.278  -1.218  1.00  0.00     0.010 A 
ATOM     35  C   UNL     1      -6.155   7.663  -0.189  1.00  0.00     0.258 C 
ATOM     36  H   UNL     1      -5.128   9.155   0.764  1.00  0.00     0.173 HD
ATOM     37  C   UNL     1      -7.254   5.745  -1.351  1.00  0.00     0.014 A 
ATOM     38  C   UNL     1      -6.009   3.740  -1.805  1.00  0.00     0.001 A 
ATOM     39  O   UNL     1      -7.183   8.311  -0.242  1.00  0.00    -0.269 OA
ATOM     40  C   UNL     1      -7.186   4.470  -1.870  1.00  0.00     0.001 A 
ENDBRANCH  25  27
ENDBRANCH  23  25
ENDBRANCH   4  21
TORSDOF 7
