REMARK SMILES N#CC1=C(N)C(C#N)(C#N)[C@@H](c2cc(Br)ccc2OCc2ccc(Cl)cc2)[C@H]2CCCC=C12
REMARK SMILES IDX 18 1 17 2 16 3 14 4 13 5 12 6 15 7 19 8 20 9 21 10 22 11
REMARK SMILES IDX 23 12 27 13 24 14 26 15 25 16 11 17 6 18 28 19 4 20 33 21
REMARK SMILES IDX 29 22 3 23 32 24 30 25 31 26 7 27 8 28 9 29 10 30 5 31 2 34
REMARK SMILES IDX 1 35
REMARK H PARENT 5 32 5 33
REMARK Flexibility Score: inf
ROOT
ATOM      1  C   UNL     1      -0.437   7.864  -1.504  1.00  0.00     0.123 A 
ATOM      2  C   UNL     1      -0.443   8.706  -0.401  1.00  0.00     0.048 A 
ATOM      3  C   UNL     1      -0.140  10.045  -0.553  1.00  0.00     0.019 A 
ATOM      4  C   UNL     1       0.158  10.549  -1.807  1.00  0.00     0.018 A 
ATOM      5  C   UNL     1       0.159   9.713  -2.909  1.00  0.00     0.023 A 
ATOM      6  C   UNL     1      -0.138   8.372  -2.760  1.00  0.00     0.002 A 
ATOM      7  Br  UNL     1       0.565  12.385  -2.014  1.00  0.00    -0.051 Br
ENDROOT
BRANCH   1   8
ATOM      8  O   UNL     1      -0.729   6.545  -1.356  1.00  0.00    -0.489 OA
BRANCH   8   9
ATOM      9  C   UNL     1      -1.028   6.092  -0.034  1.00  0.00     0.265 C 
BRANCH   9  10
ATOM     10  C   UNL     1      -1.324   4.615  -0.065  1.00  0.00    -0.011 A 
ATOM     11  C   UNL     1      -0.301   3.701   0.102  1.00  0.00     0.009 A 
ATOM     12  C   UNL     1      -0.572   2.346   0.073  1.00  0.00     0.021 A 
ATOM     13  C   UNL     1      -2.620   4.174  -0.260  1.00  0.00     0.009 A 
ATOM     14  C   UNL     1      -1.869   1.904  -0.122  1.00  0.00     0.041 A 
ATOM     15  C   UNL     1      -2.892   2.819  -0.294  1.00  0.00     0.021 A 
ATOM     16  Cl  UNL     1      -2.211   0.203  -0.158  1.00  0.00    -0.084 Cl
ENDBRANCH   9  10
ENDBRANCH   8   9
ENDBRANCH   1   8
BRANCH   6  17
ATOM     17  C   UNL     1      -0.136   7.462  -3.961  1.00  0.00     0.071 C 
ATOM     18  C   UNL     1       1.028   7.831  -4.882  1.00  0.00     0.191 C 
ATOM     19  C   UNL     1      -1.450   7.624  -4.728  1.00  0.00     0.031 C 
ATOM     20  C   UNL     1       0.810   9.165  -5.536  1.00  0.00     0.062 C 
ATOM     21  C   UNL     1      -1.604   9.069  -5.099  1.00  0.00    -0.029 C 
ATOM     22  C   UNL     1      -2.623   7.062  -3.961  1.00  0.00     0.009 C 
ATOM     23  C   UNL     1      -0.407   9.752  -5.657  1.00  0.00     0.077 C 
ATOM     24  C   UNL     1      -2.712   9.761  -4.917  1.00  0.00    -0.022 C 
ATOM     25  C   UNL     1      -3.410   8.117  -3.228  1.00  0.00     0.005 C 
ATOM     26  C   UNL     1      -3.915   9.141  -4.254  1.00  0.00     0.028 C 
BRANCH  18  27
ATOM     27  C   UNL     1       2.269   7.876  -4.092  1.00  0.00     0.092 C 
ATOM     28  N   UNL     1       3.227   7.911  -3.483  1.00  0.00    -0.196 NA
ENDBRANCH  18  27
BRANCH  18  29
ATOM     29  C   UNL     1       1.161   6.801  -5.924  1.00  0.00     0.092 C 
ATOM     30  N   UNL     1       1.263   6.005  -6.729  1.00  0.00    -0.196 NA
ENDBRANCH  18  29
BRANCH  20  31
ATOM     31  N   UNL     1       1.898   9.823  -6.037  1.00  0.00    -0.399 N 
ATOM     32  H   UNL     1       1.804  10.741  -6.495  1.00  0.00     0.156 HD
ATOM     33  H   UNL     1       2.829   9.390  -5.953  1.00  0.00     0.156 HD
ENDBRANCH  20  31
BRANCH  23  34
ATOM     34  C   UNL     1      -0.538  11.017  -6.316  1.00  0.00     0.101 C 
ATOM     35  N   UNL     1      -0.641  12.020  -6.838  1.00  0.00    -0.192 NA
ENDBRANCH  23  34
ENDBRANCH   6  17
TORSDOF 8
