REMARK SMILES C[C@H](NCc1nc2sc3c(c2c(=O)n1CC#N)CCCC3)c1ccc(NC(=O)C2CC2)cc1
REMARK SMILES IDX 3 1 2 3 1 4 22 5 33 6 23 7 32 8 24 9 25 10 26 11 27 12 28 14
REMARK SMILES IDX 29 15 31 16 30 17 4 18 5 19 14 20 6 21 12 22 7 23 11 24
REMARK SMILES IDX 13 25 8 26 10 27 9 28 18 29 21 30 19 31 20 32 15 33 16 34
REMARK SMILES IDX 17 35
REMARK H PARENT 3 2 26 13
REMARK Flexibility Score: inf
ROOT
ATOM      1  N   UNL     1      -3.065  -1.247   2.027  1.00  0.00    -0.303 NA
ATOM      2  H   UNL     1      -3.860  -0.606   2.158  1.00  0.00     0.123 HD
ENDROOT
BRANCH   1   3
ATOM      3  C   UNL     1      -3.512  -2.425   1.272  1.00  0.00     0.081 C 
ATOM      4  C   UNL     1      -2.607  -3.614   1.599  1.00  0.00     0.029 C 
BRANCH   3   5
ATOM      5  C   UNL     1      -4.932  -2.756   1.651  1.00  0.00    -0.031 A 
ATOM      6  C   UNL     1      -5.830  -3.158   0.679  1.00  0.00     0.007 A 
ATOM      7  C   UNL     1      -5.334  -2.661   2.970  1.00  0.00     0.007 A 
ATOM      8  C   UNL     1      -7.132  -3.462   1.023  1.00  0.00     0.026 A 
ATOM      9  C   UNL     1      -6.637  -2.958   3.320  1.00  0.00     0.026 A 
ATOM     10  C   UNL     1      -7.540  -3.363   2.347  1.00  0.00     0.041 A 
BRANCH  10  11
ATOM     11  N   UNL     1      -8.859  -3.671   2.699  1.00  0.00    -0.326 N 
ATOM     12  C   UNL     1      -9.527  -4.634   2.033  1.00  0.00     0.227 C 
ATOM     13  H   UNL     1      -9.319  -3.161   3.466  1.00  0.00     0.169 HD
ATOM     14  O   UNL     1      -8.956  -5.299   1.195  1.00  0.00    -0.274 OA
BRANCH  12  15
ATOM     15  C   UNL     1     -10.983  -4.885   2.331  1.00  0.00     0.079 C 
ATOM     16  C   UNL     1     -11.685  -5.992   1.542  1.00  0.00     0.014 C 
ATOM     17  C   UNL     1     -11.347  -6.202   3.019  1.00  0.00     0.014 C 
ENDBRANCH  12  15
ENDBRANCH  10  11
ENDBRANCH   3   5
ENDBRANCH   1   3
BRANCH   1  18
ATOM     18  C   UNL     1      -1.989  -0.543   1.316  1.00  0.00     0.157 C 
BRANCH  18  19
ATOM     19  C   UNL     1      -1.558   0.657   2.119  1.00  0.00     0.128 A 
ATOM     20  N   UNL     1      -0.567   1.456   1.645  1.00  0.00    -0.281 N 
ATOM     21  N   UNL     1      -2.142   0.910   3.260  1.00  0.00    -0.222 NA
ATOM     22  C   UNL     1      -0.148   2.534   2.332  1.00  0.00     0.263 A 
ATOM     23  C   UNL     1      -1.786   1.960   3.993  1.00  0.00     0.131 A 
ATOM     24  C   UNL     1      -0.773   2.844   3.585  1.00  0.00     0.080 A 
ATOM     25  O   UNL     1       0.746   3.239   1.895  1.00  0.00    -0.268 OA
ATOM     26  S   UNL     1      -2.315   2.631   5.549  1.00  0.00    -0.120 S 
ATOM     27  C   UNL     1      -0.489   3.954   4.492  1.00  0.00    -0.019 A 
ATOM     28  C   UNL     1      -1.220   4.023   5.624  1.00  0.00     0.011 A 
ATOM     29  C   UNL     1       0.581   5.000   4.191  1.00  0.00     0.037 C 
ATOM     30  C   UNL     1      -1.123   5.054   6.707  1.00  0.00     0.047 C 
ATOM     31  C   UNL     1       0.319   6.236   5.053  1.00  0.00     0.005 C 
ATOM     32  C   UNL     1       0.191   5.827   6.523  1.00  0.00     0.006 C 
BRANCH  20  33
ATOM     33  C   UNL     1       0.061   1.134   0.361  1.00  0.00     0.247 C 
BRANCH  33  34
ATOM     34  C   UNL     1      -0.671   1.805  -0.726  1.00  0.00     0.084 C 
ATOM     35  N   UNL     1      -1.236   2.322  -1.564  1.00  0.00    -0.196 NA
ENDBRANCH  33  34
ENDBRANCH  20  33
ENDBRANCH  18  19
ENDBRANCH   1  18
TORSDOF 8
