REMARK SMILES C/C(=C\Cc1c([O-])cc(C)c(C=O)c1O)[C@H](O)C[C@@]1(C)[C@@H](C)CCC(=O)[C@@H]1C
REMARK SMILES IDX 3 1 2 2 1 3 4 4 5 5 10 6 9 7 11 8 8 9 14 10 6 11 7 12 12 13
REMARK SMILES IDX 13 14 15 15 16 17 18 18 19 19 27 20 21 21 20 22 25 23 28 24
REMARK SMILES IDX 23 25 22 26 24 27 26 28 17 29
REMARK H PARENT 15 16 17 30
REMARK Flexibility Score: inf
ROOT
ATOM      1  C   UNL     1      -1.722   1.905   1.143  1.00  0.00    -0.021 C 
ATOM      2  C   UNL     1      -0.446   1.609   1.174  1.00  0.00    -0.049 C 
ATOM      3  C   UNL     1       0.246   1.128  -0.076  1.00  0.00     0.042 C 
ENDROOT
BRANCH   1   4
ATOM      4  C   UNL     1      -2.524   1.654  -0.107  1.00  0.00     0.066 C 
BRANCH   4   5
ATOM      5  C   UNL     1      -3.729   0.815   0.230  1.00  0.00    -0.009 A 
ATOM      6  C   UNL     1      -7.190  -1.530   1.199  1.00  0.00     0.045 C 
ATOM      7  C   UNL     1      -5.975  -0.707   0.859  1.00  0.00    -0.037 A 
ATOM      8  C   UNL     1      -4.779  -1.341   0.493  1.00  0.00     0.059 A 
ATOM      9  C   UNL     1      -6.039   0.655   0.906  1.00  0.00    -0.004 A 
ATOM     10  C   UNL     1      -3.650  -0.566   0.172  1.00  0.00     0.129 A 
ATOM     11  C   UNL     1      -4.922   1.425   0.593  1.00  0.00    -0.101 A 
ATOM     12  O   UNL     1      -4.998   2.779   0.644  1.00  0.00    -0.872 OA
BRANCH   8  13
ATOM     13  C   UNL     1      -4.708  -2.803   0.441  1.00  0.00     0.264 C 
ATOM     14  O   UNL     1      -5.709  -3.466   0.615  1.00  0.00    -0.298 OA
ENDBRANCH   8  13
BRANCH  10  15
ATOM     15  O   UNL     1      -2.490  -1.168  -0.189  1.00  0.00    -0.507 OA
ATOM     16  H   UNL     1      -1.816  -0.824   0.451  1.00  0.00     0.293 HD
ENDBRANCH  10  15
ENDBRANCH   4   5
ENDBRANCH   1   4
BRANCH   2  17
ATOM     17  C   UNL     1       0.330   1.749   2.458  1.00  0.00     0.140 C 
BRANCH  17  18
ATOM     18  C   UNL     1       0.802   0.369   2.921  1.00  0.00     0.044 C 
BRANCH  18  19
ATOM     19  C   UNL     1       1.441   0.488   4.306  1.00  0.00    -0.018 C 
ATOM     20  C   UNL     1       2.730   1.310   4.206  1.00  0.00     0.059 C 
ATOM     21  C   UNL     1       1.769  -0.908   4.838  1.00  0.00    -0.007 C 
ATOM     22  C   UNL     1       0.467   1.181   5.260  1.00  0.00     0.012 C 
ATOM     23  C   UNL     1       3.727   0.541   3.366  1.00  0.00     0.136 C 
ATOM     24  C   UNL     1       3.305   1.537   5.606  1.00  0.00     0.016 C 
ATOM     25  C   UNL     1       2.672  -1.643   3.846  1.00  0.00     0.012 C 
ATOM     26  C   UNL     1       0.472  -1.698   5.026  1.00  0.00     0.008 C 
ATOM     27  C   UNL     1       4.008  -0.901   3.728  1.00  0.00     0.076 C 
ATOM     28  O   UNL     1       4.284   1.065   2.432  1.00  0.00    -0.299 OA
ENDBRANCH  18  19
ENDBRANCH  17  18
BRANCH  17  29
ATOM     29  O   UNL     1       1.463   2.592   2.240  1.00  0.00    -0.389 OA
ATOM     30  H   UNL     1       1.158   3.485   1.941  1.00  0.00     0.211 HD
ENDBRANCH  17  29
ENDBRANCH   2  17
TORSDOF 8
