REMARK SMILES COc1ccc2c(c1O)[C@@]13CC[N@@H+](C)[C@@H](C2)[C@@H]1CC1=C(C3)C(C(F)(F)F)=NN[C@@H]1C(F)(F)F
REMARK SMILES IDX 14 1 13 2 12 3 11 4 10 5 21 6 20 7 19 8 18 9 17 10 15 11
REMARK SMILES IDX 16 12 6 13 7 14 8 15 3 16 4 17 5 18 29 19 28 20 27 21 22 22
REMARK SMILES IDX 9 25 30 27 31 28 32 29 33 30 2 31 1 32 23 33 24 34 25 35
REMARK SMILES IDX 26 36
REMARK H PARENT 13 23 28 24 9 26
REMARK Flexibility Score: inf
ROOT
ATOM      1  C   UNL     1      -3.545   5.072  -2.361  1.00  0.00     0.332 C 
ATOM      2  N   UNL     1      -2.398   5.608  -1.615  1.00  0.00    -0.334 N 
ATOM      3  C   UNL     1      -1.133   5.176  -2.216  1.00  0.00     0.263 C 
ATOM      4  C   UNL     1       0.041   5.816  -1.463  1.00  0.00     0.074 C 
ATOM      5  C   UNL     1      -0.045   5.357  -0.002  1.00  0.00     0.018 C 
ATOM      6  C   UNL     1       1.138   5.873   0.800  1.00  0.00     0.050 C 
ATOM      7  C   UNL     1       1.052   7.361   1.015  1.00  0.00    -0.013 C 
ATOM      8  C   UNL     1      -0.070   8.047   0.848  1.00  0.00    -0.031 C 
ATOM      9  C   UNL     1      -1.360   7.422   0.393  1.00  0.00     0.044 C 
ATOM     10  C   UNL     1      -1.346   5.907   0.596  1.00  0.00     0.063 C 
ATOM     11  C   UNL     1      -2.507   5.297  -0.197  1.00  0.00     0.192 C 
ATOM     12  C   UNL     1      -2.598   3.807   0.074  1.00  0.00     0.101 C 
ATOM     13  C   UNL     1      -1.250   3.140   0.033  1.00  0.00    -0.034 A 
ATOM     14  C   UNL     1      -0.070   3.850   0.016  1.00  0.00     0.008 A 
ATOM     15  C   UNL     1       1.146   3.175   0.002  1.00  0.00     0.161 A 
ATOM     16  C   UNL     1       1.177   1.786   0.000  1.00  0.00     0.160 A 
ATOM     17  C   UNL     1      -0.013   1.076   0.008  1.00  0.00     0.051 A 
ATOM     18  C   UNL     1      -1.216   1.751   0.017  1.00  0.00     0.008 A 
ATOM     19  C   UNL     1      -0.069   9.542   1.112  1.00  0.00     0.230 C 
ATOM     20  N   UNL     1       1.271  10.069   0.828  1.00  0.00    -0.293 NA
ATOM     21  N   UNL     1       2.376   9.352   1.321  1.00  0.00    -0.174 NA
ATOM     22  C   UNL     1       2.284   8.061   1.423  1.00  0.00     0.167 C 
ATOM     23  H   UNL     1      -2.407   6.635  -1.682  1.00  0.00     0.348 HD
ATOM     24  H   UNL     1       1.398  10.935   0.286  1.00  0.00     0.184 HD
ENDROOT
BRANCH  15  25
ATOM     25  O   UNL     1       2.310   3.879  -0.011  1.00  0.00    -0.504 OA
ATOM     26  H   UNL     1       2.264   4.464   0.786  1.00  0.00     0.293 HD
ENDBRANCH  15  25
BRANCH  19  27
ATOM     27  C   UNL     1      -0.425   9.805   2.576  1.00  0.00     0.414 C 
ATOM     28  F   UNL     1      -0.406  11.182   2.820  1.00  0.00    -0.168 F 
ATOM     29  F   UNL     1      -1.703   9.302   2.843  1.00  0.00    -0.168 F 
ATOM     30  F   UNL     1       0.508   9.171   3.404  1.00  0.00    -0.168 F 
ENDBRANCH  19  27
BRANCH  16  31
ATOM     31  O   UNL     1       2.367   1.128  -0.008  1.00  0.00    -0.493 OA
ATOM     32  C   UNL     1       2.319  -0.300  -0.008  1.00  0.00     0.278 C 
ENDBRANCH  16  31
BRANCH  22  33
ATOM     33  C   UNL     1       3.448   7.270   1.963  1.00  0.00     0.435 C 
ATOM     34  F   UNL     1       4.496   8.140   2.281  1.00  0.00    -0.164 F 
ATOM     35  F   UNL     1       3.049   6.581   3.113  1.00  0.00    -0.164 F 
ATOM     36  F   UNL     1       3.878   6.355   0.997  1.00  0.00    -0.164 F 
ENDBRANCH  22  33
TORSDOF 4
