REMARK SMILES Cc1cc(C(=O)N2CCC[C@H](C(=O)Nc3cccc(-c4cc5ccccc5[nH]4)c3)C2)nn1C
REMARK SMILES IDX 7 1 8 2 9 3 10 4 11 5 30 6 5 7 6 8 4 9 1 10 2 11 32 12 3 13
REMARK SMILES IDX 31 14 33 15 12 16 13 17 14 18 15 20 29 21 16 22 19 23 17 24
REMARK SMILES IDX 18 25 20 26 28 27 21 28 27 29 22 31 26 32 23 33 25 34 24 35
REMARK H PARENT 14 19 28 30
REMARK Flexibility Score: inf
ROOT
ATOM      1  N   UNL     1      -8.913  -5.230   0.802  1.00  0.00    -0.336 N 
ATOM      2  C   UNL     1      -9.529  -6.483   0.344  1.00  0.00     0.120 C 
ATOM      3  C   UNL     1      -8.919  -6.867  -1.008  1.00  0.00     0.022 C 
ATOM      4  C   UNL     1      -7.395  -6.927  -0.877  1.00  0.00     0.017 C 
ATOM      5  C   UNL     1      -6.861  -5.549  -0.479  1.00  0.00     0.098 C 
ATOM      6  C   UNL     1      -7.448  -5.150   0.878  1.00  0.00     0.133 C 
ENDROOT
BRANCH   1   7
ATOM      7  C   UNL     1      -9.677  -4.175   1.147  1.00  0.00     0.274 C 
ATOM      8  O   UNL     1      -9.157  -3.108   1.410  1.00  0.00    -0.267 OA
BRANCH   7   9
ATOM      9  C   UNL     1     -11.146  -4.315   1.205  1.00  0.00     0.150 A 
ATOM     10  C   UNL     1     -14.631  -3.198   1.587  1.00  0.00     0.066 C 
ATOM     11  C   UNL     1     -13.297  -3.875   1.399  1.00  0.00     0.036 A 
ATOM     12  N   UNL     1     -13.092  -5.189   1.165  1.00  0.00    -0.272 N 
ATOM     13  C   UNL     1     -12.083  -3.279   1.432  1.00  0.00     0.059 A 
ATOM     14  N   UNL     1     -11.835  -5.428   1.050  1.00  0.00    -0.168 NA
ATOM     15  C   UNL     1     -14.150  -6.195   1.053  1.00  0.00     0.174 C 
ENDBRANCH   7   9
ENDBRANCH   1   7
BRANCH   5  16
ATOM     16  C   UNL     1      -5.358  -5.601  -0.382  1.00  0.00     0.229 C 
ATOM     17  O   UNL     1      -4.771  -6.638  -0.608  1.00  0.00    -0.274 OA
ATOM     18  N   UNL     1      -4.666  -4.495  -0.044  1.00  0.00    -0.326 N 
ATOM     19  H   UNL     1      -5.165  -3.618   0.162  1.00  0.00     0.169 HD
BRANCH  18  20
ATOM     20  C   UNL     1      -3.269  -4.538   0.028  1.00  0.00     0.041 A 
ATOM     21  C   UNL     1      -2.520  -3.448  -0.386  1.00  0.00     0.036 A 
ATOM     22  C   UNL     1      -2.633  -5.675   0.513  1.00  0.00     0.026 A 
ATOM     23  C   UNL     1      -1.128  -3.496  -0.312  1.00  0.00     0.000 A 
ATOM     24  C   UNL     1      -1.254  -5.722   0.586  1.00  0.00     0.003 A 
ATOM     25  C   UNL     1      -0.498  -4.644   0.172  1.00  0.00     0.010 A 
BRANCH  23  26
ATOM     26  C   UNL     1      -0.321  -2.337  -0.751  1.00  0.00     0.047 A 
ATOM     27  N   UNL     1      -0.830  -1.159  -1.248  1.00  0.00    -0.355 N 
ATOM     28  C   UNL     1       1.033  -2.271  -0.725  1.00  0.00     0.037 A 
ATOM     29  C   UNL     1       0.201  -0.299  -1.556  1.00  0.00     0.046 A 
ATOM     30  H   UNL     1      -1.831  -0.951  -1.371  1.00  0.00     0.167 HD
ATOM     31  C   UNL     1       1.406  -0.956  -1.243  1.00  0.00     0.000 A 
ATOM     32  C   UNL     1       0.244   0.990  -2.077  1.00  0.00     0.026 A 
ATOM     33  C   UNL     1       2.627  -0.311  -1.457  1.00  0.00     0.010 A 
ATOM     34  C   UNL     1       1.459   1.607  -2.280  1.00  0.00     0.002 A 
ATOM     35  C   UNL     1       2.645   0.956  -1.969  1.00  0.00     0.001 A 
ENDBRANCH  23  26
ENDBRANCH  18  20
ENDBRANCH   5  16
TORSDOF 5
