REMARK SMILES COc1ccc(CN2CCc3[nH]nc(-c4ccc5c(c4)OCO5)c3C2)cc1O
REMARK SMILES IDX 7 1 6 2 3 3 27 4 4 5 26 6 5 7 2 8 1 9 28 10 8 12 9 13 25 14
REMARK SMILES IDX 10 15 24 16 11 17 14 18 12 19 13 20 15 22 20 23 16 24 19 25
REMARK SMILES IDX 17 26 18 27 21 28 23 29 22 30
REMARK H PARENT 28 11 12 21
REMARK Flexibility Score: inf
ROOT
ATOM      1  C   UNL     1       2.458   3.932  -0.002  1.00  0.00     0.120 C 
ENDROOT
BRANCH   1   2
ATOM      2  C   UNL     1       1.160   3.166   0.007  1.00  0.00    -0.030 A 
ATOM      3  C   UNL     1      -1.222   1.752   0.017  1.00  0.00     0.160 A 
ATOM      4  C   UNL     1      -1.237   3.144   0.029  1.00  0.00     0.157 A 
ATOM      5  C   UNL     1      -0.013   1.076   0.008  1.00  0.00     0.051 A 
ATOM      6  C   UNL     1      -0.043   3.847   0.021  1.00  0.00     0.055 A 
ATOM      7  C   UNL     1       1.175   1.783   0.000  1.00  0.00     0.009 A 
BRANCH   3   8
ATOM      8  O   UNL     1      -2.391   1.058   0.020  1.00  0.00    -0.493 OA
ATOM      9  C   UNL     1      -2.299  -0.368   0.012  1.00  0.00     0.278 C 
ENDBRANCH   3   8
BRANCH   4  10
ATOM     10  O   UNL     1      -2.421   3.812   0.043  1.00  0.00    -0.504 OA
ATOM     11  H   UNL     1      -2.898   3.468   0.840  1.00  0.00     0.293 HD
ENDBRANCH   4  10
ENDBRANCH   1   2
BRANCH   1  12
ATOM     12  N   UNL     1       2.841   4.201  -1.403  1.00  0.00    -0.294 NA
ATOM     13  C   UNL     1       3.182   2.932  -2.085  1.00  0.00     0.091 C 
ATOM     14  C   UNL     1       3.995   5.132  -1.442  1.00  0.00     0.124 C 
ATOM     15  C   UNL     1       3.217   3.177  -3.600  1.00  0.00     0.071 C 
ATOM     16  C   UNL     1       4.434   5.264  -2.879  1.00  0.00     0.015 A 
ATOM     17  C   UNL     1       4.082   4.387  -3.853  1.00  0.00     0.042 A 
ATOM     18  C   UNL     1       5.238   6.253  -3.459  1.00  0.00     0.097 A 
ATOM     19  N   UNL     1       4.635   4.800  -5.004  1.00  0.00    -0.282 N 
ATOM     20  N   UNL     1       5.359   5.973  -4.742  1.00  0.00    -0.175 NA
ATOM     21  H   UNL     1       4.543   4.336  -5.920  1.00  0.00     0.190 HD
BRANCH  18  22
ATOM     22  C   UNL     1       5.846   7.411  -2.756  1.00  0.00     0.006 A 
ATOM     23  C   UNL     1       7.102   7.878  -3.137  1.00  0.00     0.061 A 
ATOM     24  C   UNL     1       5.158   8.035  -1.717  1.00  0.00     0.014 A 
ATOM     25  C   UNL     1       7.665   8.957  -2.480  1.00  0.00     0.166 A 
ATOM     26  C   UNL     1       5.726   9.107  -1.060  1.00  0.00     0.051 A 
ATOM     27  C   UNL     1       6.976   9.575  -1.438  1.00  0.00     0.165 A 
ATOM     28  O   UNL     1       8.858   9.598  -2.654  1.00  0.00    -0.454 OA
ATOM     29  O   UNL     1       7.737  10.603  -0.961  1.00  0.00    -0.454 OA
ATOM     30  C   UNL     1       9.069  10.352  -1.446  1.00  0.00     0.468 C 
ENDBRANCH  18  22
ENDBRANCH   1  12
TORSDOF 5
