REMARK SMILES COC(=O)c1ccc(Cl)cc1NC(=O)NCc1c(-n2cccc2)sc2c1CC[N@@H+](C)C2
REMARK SMILES IDX 15 1 13 2 14 3 12 4 16 7 17 8 30 9 29 10 31 11 28 12 25 14
REMARK SMILES IDX 27 15 26 16 24 17 18 18 19 19 23 20 20 21 22 22 21 23 11 24
REMARK SMILES IDX 5 25 10 26 6 27 8 28 7 29 9 30 3 31 4 32 2 33 1 34
REMARK H PARENT 15 5 12 6 29 13
REMARK Flexibility Score: inf
ROOT
ATOM      1  N   UNL     1      -1.179  -0.918   0.661  1.00  0.00    -0.334 N 
ATOM      2  C   UNL     1       0.101  -0.501   0.583  1.00  0.00     0.319 C 
ATOM      3  O   UNL     1       1.004  -1.314   0.555  1.00  0.00    -0.248 OA
ATOM      4  N   UNL     1       0.379   0.817   0.537  1.00  0.00    -0.307 N 
ATOM      5  H   UNL     1      -1.944  -0.229   0.686  1.00  0.00     0.165 HD
ATOM      6  H   UNL     1      -0.388   1.503   0.483  1.00  0.00     0.171 HD
ENDROOT
BRANCH   1   7
ATOM      7  C   UNL     1      -1.481  -2.350   0.712  1.00  0.00     0.157 C 
BRANCH   7   8
ATOM      8  C   UNL     1      -2.972  -2.547   0.796  1.00  0.00     0.010 A 
ATOM      9  C   UNL     1      -6.331  -3.027  -3.706  1.00  0.00     0.333 C 
ATOM     10  N   UNL     1      -5.451  -2.697  -2.577  1.00  0.00    -0.333 N 
ATOM     11  C   UNL     1      -6.076  -3.069  -1.293  1.00  0.00     0.310 C 
ATOM     12  C   UNL     1      -4.141  -3.346  -2.723  1.00  0.00     0.267 C 
ATOM     13  H   UNL     1      -5.306  -1.677  -2.580  1.00  0.00     0.348 HD
ATOM     14  C   UNL     1      -5.064  -2.879  -0.210  1.00  0.00     0.065 A 
ATOM     15  C   UNL     1      -3.125  -2.708  -1.772  1.00  0.00     0.098 C 
ATOM     16  C   UNL     1      -3.722  -2.709  -0.367  1.00  0.00    -0.016 A 
ATOM     17  S   UNL     1      -5.298  -2.819   1.544  1.00  0.00    -0.116 S 
ATOM     18  C   UNL     1      -3.590  -2.571   2.007  1.00  0.00     0.105 A 
BRANCH  18  19
ATOM     19  N   UNL     1      -3.033  -2.435   3.284  1.00  0.00    -0.315 N 
ATOM     20  C   UNL     1      -2.145  -1.472   3.667  1.00  0.00     0.092 A 
ATOM     21  C   UNL     1      -3.292  -3.241   4.355  1.00  0.00     0.092 A 
ATOM     22  C   UNL     1      -1.841  -1.670   4.966  1.00  0.00     0.020 A 
ATOM     23  C   UNL     1      -2.567  -2.797   5.402  1.00  0.00     0.020 A 
ENDBRANCH  18  19
ENDBRANCH   7   8
ENDBRANCH   1   7
BRANCH   4  24
ATOM     24  C   UNL     1       1.701   1.251   0.563  1.00  0.00     0.058 A 
ATOM     25  C   UNL     1       2.047   2.421   1.257  1.00  0.00     0.083 A 
ATOM     26  C   UNL     1       2.686   0.526  -0.094  1.00  0.00     0.047 A 
ATOM     27  C   UNL     1       3.378   2.846   1.275  1.00  0.00     0.019 A 
ATOM     28  C   UNL     1       3.997   0.961  -0.072  1.00  0.00     0.043 A 
ATOM     29  C   UNL     1       4.341   2.117   0.614  1.00  0.00     0.021 A 
ATOM     30  Cl  UNL     1       5.222   0.053  -0.902  1.00  0.00    -0.084 Cl
BRANCH  25  31
ATOM     31  C   UNL     1       1.012   3.196   1.963  1.00  0.00     0.339 C 
ATOM     32  O   UNL     1      -0.126   2.774   2.027  1.00  0.00    -0.246 OA
BRANCH  31  33
ATOM     33  O   UNL     1       1.327   4.374   2.537  1.00  0.00    -0.465 OA
ATOM     34  C   UNL     1       0.256   5.084   3.215  1.00  0.00     0.282 C 
ENDBRANCH  31  33
ENDBRANCH  25  31
ENDBRANCH   4  24
TORSDOF 6
