REMARK SMILES C[N@H+](Cc1ccc(C(=O)NCc2cc3ccccc3s2)c(=O)[nH]1)Cc1cccc2ccccc12
REMARK SMILES IDX 4 1 5 2 6 3 7 4 21 5 22 6 23 7 3 9 2 10 1 11 24 13 25 14
REMARK SMILES IDX 34 15 26 16 29 17 33 18 27 19 28 20 30 21 32 22 31 23 8 24
REMARK SMILES IDX 9 25 10 26 11 28 12 29 20 30 13 31 19 32 14 33 18 34 15 35
REMARK SMILES IDX 17 36 16 37
REMARK H PARENT 23 8 2 12 10 27
REMARK Flexibility Score: inf
ROOT
ATOM      1  C   UNL     1      -8.008   3.832  -5.876  1.00  0.00     0.073 A 
ATOM      2  C   UNL     1      -8.790   3.983  -4.776  1.00  0.00     0.028 A 
ATOM      3  C   UNL     1      -8.337   3.548  -3.530  1.00  0.00     0.021 A 
ATOM      4  C   UNL     1      -7.073   2.969  -3.437  1.00  0.00     0.104 A 
ATOM      5  C   UNL     1      -6.294   2.832  -4.615  1.00  0.00     0.261 A 
ATOM      6  O   UNL     1      -5.188   2.324  -4.560  1.00  0.00    -0.269 OA
ATOM      7  N   UNL     1      -6.782   3.264  -5.793  1.00  0.00    -0.320 N 
ATOM      8  H   UNL     1      -6.212   3.162  -6.645  1.00  0.00     0.170 HD
ENDROOT
BRANCH   1   9
ATOM      9  C   UNL     1      -8.517   4.303  -7.214  1.00  0.00     0.317 C 
BRANCH   9  10
ATOM     10  N   UNL     1      -7.733   5.486  -7.628  1.00  0.00    -0.329 N 
ATOM     11  C   UNL     1      -6.417   5.063  -8.151  1.00  0.00     0.333 C 
ATOM     12  H   UNL     1      -7.588   6.094  -6.809  1.00  0.00     0.348 HD
BRANCH  10  13
ATOM     13  C   UNL     1      -8.469   6.242  -8.663  1.00  0.00     0.299 C 
BRANCH  13  14
ATOM     14  C   UNL     1      -7.767   7.556  -8.896  1.00  0.00     0.014 A 
ATOM     15  C   UNL     1      -7.884   8.595  -7.958  1.00  0.00    -0.010 A 
ATOM     16  C   UNL     1      -7.021   7.743 -10.019  1.00  0.00     0.010 A 
ATOM     17  C   UNL     1      -7.213   9.822  -8.192  1.00  0.00    -0.018 A 
ATOM     18  C   UNL     1      -8.642   8.438  -6.785  1.00  0.00     0.009 A 
ATOM     19  C   UNL     1      -6.366   8.950 -10.251  1.00  0.00     0.001 A 
ATOM     20  C   UNL     1      -6.452   9.978  -9.362  1.00  0.00     0.009 A 
ATOM     21  C   UNL     1      -7.326  10.859  -7.250  1.00  0.00     0.009 A 
ATOM     22  C   UNL     1      -8.728   9.464  -5.895  1.00  0.00     0.001 A 
ATOM     23  C   UNL     1      -8.072  10.671  -6.128  1.00  0.00     0.001 A 
ENDBRANCH  13  14
ENDBRANCH  10  13
ENDBRANCH   9  10
ENDBRANCH   1   9
BRANCH   4  24
ATOM     24  C   UNL     1      -6.558   2.502  -2.140  1.00  0.00     0.257 C 
ATOM     25  O   UNL     1      -7.274   2.526  -1.157  1.00  0.00    -0.269 OA
ATOM     26  N   UNL     1      -5.293   2.047  -2.042  1.00  0.00    -0.347 N 
ATOM     27  H   UNL     1      -4.711   1.956  -2.887  1.00  0.00     0.164 HD
BRANCH  26  28
ATOM     28  C   UNL     1      -4.746   1.681  -0.733  1.00  0.00     0.163 C 
BRANCH  28  29
ATOM     29  C   UNL     1      -3.325   1.207  -0.898  1.00  0.00     0.025 A 
ATOM     30  S   UNL     1      -2.743  -0.452  -1.192  1.00  0.00    -0.138 S 
ATOM     31  C   UNL     1      -2.197   1.930  -0.844  1.00  0.00     0.026 A 
ATOM     32  C   UNL     1      -1.000  -0.125  -1.252  1.00  0.00     0.035 A 
ATOM     33  C   UNL     1      -0.915   1.267  -1.035  1.00  0.00    -0.007 A 
ATOM     34  C   UNL     1       0.120  -0.905  -1.445  1.00  0.00     0.019 A 
ATOM     35  C   UNL     1       0.382   1.832  -1.037  1.00  0.00     0.009 A 
ATOM     36  C   UNL     1       1.369  -0.317  -1.439  1.00  0.00     0.001 A 
ATOM     37  C   UNL     1       1.479   1.052  -1.233  1.00  0.00     0.001 A 
ENDBRANCH  28  29
ENDBRANCH  26  28
ENDBRANCH   4  24
TORSDOF 7
