REMARK SMILES O=C(Nc1nc2ccccc2n1CC[NH+]1CCCCC1)c1cccc(Cn2cc(Br)cn2)c1
REMARK SMILES IDX 8 1 9 2 10 3 11 4 6 5 7 6 5 7 4 8 12 9 13 10 14 11 15 12
REMARK SMILES IDX 16 13 20 14 17 16 19 17 18 18 3 19 2 20 1 22 21 23 33 24
REMARK SMILES IDX 22 25 25 26 23 27 24 28 26 29 27 30 32 31 28 32 31 33 29 34
REMARK SMILES IDX 30 35
REMARK H PARENT 15 15 3 21
REMARK Flexibility Score: inf
ROOT
ATOM      1  C   UNL     1      -0.318  -2.211  -4.864  1.00  0.00     0.002 A 
ATOM      2  C   UNL     1      -1.196  -2.182  -3.791  1.00  0.00     0.002 A 
ATOM      3  C   UNL     1      -1.197  -1.115  -2.917  1.00  0.00     0.028 A 
ATOM      4  C   UNL     1      -0.314  -0.063  -3.111  1.00  0.00     0.070 A 
ATOM      5  C   UNL     1       0.578  -0.087  -4.196  1.00  0.00     0.091 A 
ATOM      6  C   UNL     1       0.566  -1.176  -5.072  1.00  0.00     0.031 A 
ATOM      7  N   UNL     1       1.311   1.055  -4.137  1.00  0.00    -0.213 NA
ATOM      8  C   UNL     1       0.930   1.768  -3.107  1.00  0.00     0.211 A 
ATOM      9  N   UNL     1      -0.067   1.120  -2.437  1.00  0.00    -0.304 N 
ENDROOT
BRANCH   9  10
ATOM     10  C   UNL     1      -0.753   1.593  -1.232  1.00  0.00     0.187 C 
BRANCH  10  11
ATOM     11  C   UNL     1      -0.013   1.086   0.008  1.00  0.00     0.284 C 
BRANCH  11  12
ATOM     12  N   UNL     1      -0.729   1.552   1.213  1.00  0.00    -0.333 N 
ATOM     13  C   UNL     1      -0.620   3.022   1.329  1.00  0.00     0.262 C 
ATOM     14  C   UNL     1      -0.165   0.905   2.417  1.00  0.00     0.262 C 
ATOM     15  H   UNL     1      -1.724   1.296   1.132  1.00  0.00     0.348 HD
ATOM     16  C   UNL     1      -1.466   3.491   2.514  1.00  0.00     0.062 C 
ATOM     17  C   UNL     1      -0.998   1.311   3.635  1.00  0.00     0.062 C 
ATOM     18  C   UNL     1      -0.950   2.833   3.797  1.00  0.00     0.012 C 
ENDBRANCH  11  12
ENDBRANCH  10  11
ENDBRANCH   9  10
BRANCH   8  19
ATOM     19  N   UNL     1       1.462   2.994  -2.750  1.00  0.00    -0.292 N 
ATOM     20  C   UNL     1       2.447   3.542  -3.488  1.00  0.00     0.257 C 
ATOM     21  H   UNL     1       1.104   3.489  -1.921  1.00  0.00     0.173 HD
ATOM     22  O   UNL     1       2.870   2.959  -4.467  1.00  0.00    -0.269 OA
BRANCH  20  23
ATOM     23  C   UNL     1       3.015   4.853  -3.107  1.00  0.00     0.040 A 
ATOM     24  C   UNL     1       4.036   5.423  -3.869  1.00  0.00     0.019 A 
ATOM     25  C   UNL     1       2.528   5.528  -1.986  1.00  0.00     0.014 A 
ATOM     26  C   UNL     1       4.561   6.646  -3.507  1.00  0.00    -0.026 A 
ATOM     27  C   UNL     1       3.066   6.748  -1.632  1.00  0.00     0.001 A 
ATOM     28  C   UNL     1       4.078   7.308  -2.392  1.00  0.00     0.006 A 
BRANCH  26  29
ATOM     29  C   UNL     1       5.664   7.263  -4.328  1.00  0.00     0.179 C 
BRANCH  29  30
ATOM     30  N   UNL     1       5.080   8.100  -5.380  1.00  0.00    -0.267 N 
ATOM     31  N   UNL     1       4.144   7.687  -6.337  1.00  0.00    -0.180 NA
ATOM     32  C   UNL     1       5.354   9.403  -5.602  1.00  0.00     0.124 A 
ATOM     33  C   UNL     1       3.861   8.711  -7.100  1.00  0.00     0.150 A 
ATOM     34  C   UNL     1       4.613   9.805  -6.661  1.00  0.00     0.055 A 
ATOM     35  Br  UNL     1       4.597  11.540  -7.412  1.00  0.00    -0.047 Br
ENDBRANCH  29  30
ENDBRANCH  26  29
ENDBRANCH  20  23
ENDBRANCH   8  19
TORSDOF 7
