REMARK SMILES Cc1cc(C)c2cc(C(=O)N3CCNC(=O)[C@@H]3c3c(C)nn(-c4ccccc4)c3C)[nH]c2c1
REMARK SMILES IDX 11 1 12 2 13 3 14 4 15 5 16 6 17 7 9 9 10 10 8 11 1 12 2 13
REMARK SMILES IDX 33 14 3 15 32 16 4 17 6 18 31 19 5 20 7 21 18 23 29 24 19 25
REMARK SMILES IDX 22 26 30 27 21 28 20 29 23 30 28 31 24 32 27 33 25 34 26 35
REMARK H PARENT 14 8 31 22
REMARK Flexibility Score: inf
ROOT
ATOM      1  N   UNL     1      -1.226   2.297  -1.098  1.00  0.00    -0.319 N 
ATOM      2  C   UNL     1      -2.394   2.220  -1.991  1.00  0.00     0.142 C 
ATOM      3  C   UNL     1      -3.531   3.026  -1.361  1.00  0.00     0.137 C 
ATOM      4  N   UNL     1      -3.053   4.323  -0.903  1.00  0.00    -0.352 N 
ATOM      5  C   UNL     1      -1.780   4.606  -0.626  1.00  0.00     0.247 C 
ATOM      6  O   UNL     1      -1.515   5.701  -0.176  1.00  0.00    -0.272 OA
ATOM      7  C   UNL     1      -0.660   3.631  -0.842  1.00  0.00     0.209 C 
ATOM      8  H   UNL     1      -3.748   5.074  -0.784  1.00  0.00     0.163 HD
ENDROOT
BRANCH   1   9
ATOM      9  C   UNL     1      -0.700   1.192  -0.533  1.00  0.00     0.271 C 
ATOM     10  O   UNL     1       0.192   1.294   0.288  1.00  0.00    -0.267 OA
BRANCH   9  11
ATOM     11  C   UNL     1      -1.200  -0.137  -0.913  1.00  0.00     0.105 A 
ATOM     12  C   UNL     1      -4.588  -4.939  -2.153  1.00  0.00     0.044 C 
ATOM     13  C   UNL     1      -3.433  -3.992  -1.951  1.00  0.00    -0.049 A 
ATOM     14  C   UNL     1      -3.672  -2.708  -1.519  1.00  0.00     0.030 A 
ATOM     15  C   UNL     1      -2.137  -4.425  -2.203  1.00  0.00     0.007 A 
ATOM     16  C   UNL     1      -2.607  -1.831  -1.332  1.00  0.00     0.046 A 
ATOM     17  C   UNL     1      -1.077  -3.585  -2.027  1.00  0.00    -0.041 A 
ATOM     18  C   UNL     1      -1.294  -2.272  -1.588  1.00  0.00     0.003 A 
ATOM     19  N   UNL     1      -2.527  -0.521  -0.920  1.00  0.00    -0.351 N 
ATOM     20  C   UNL     1       0.324  -4.067  -2.303  1.00  0.00     0.045 C 
ATOM     21  C   UNL     1      -0.432  -1.181  -1.320  1.00  0.00     0.042 A 
ATOM     22  H   UNL     1      -3.326   0.075  -0.659  1.00  0.00     0.167 HD
ENDBRANCH   9  11
ENDBRANCH   1   9
BRANCH   7  23
ATOM     23  C   UNL     1       0.162   4.066  -2.028  1.00  0.00     0.028 A 
ATOM     24  C   UNL     1       1.215   3.400  -2.554  1.00  0.00     0.047 A 
ATOM     25  C   UNL     1      -0.027   5.234  -2.776  1.00  0.00     0.066 A 
ATOM     26  N   UNL     1       1.673   4.118  -3.605  1.00  0.00    -0.237 N 
ATOM     27  C   UNL     1       1.776   2.092  -2.061  1.00  0.00     0.067 C 
ATOM     28  N   UNL     1       0.877   5.266  -3.721  1.00  0.00    -0.173 NA
ATOM     29  C   UNL     1      -1.089   6.275  -2.534  1.00  0.00     0.069 C 
BRANCH  26  30
ATOM     30  C   UNL     1       2.754   3.778  -4.429  1.00  0.00     0.065 A 
ATOM     31  C   UNL     1       2.920   2.466  -4.853  1.00  0.00     0.028 A 
ATOM     32  C   UNL     1       3.659   4.753  -4.828  1.00  0.00     0.028 A 
ATOM     33  C   UNL     1       3.986   2.133  -5.665  1.00  0.00     0.002 A 
ATOM     34  C   UNL     1       4.726   4.413  -5.636  1.00  0.00     0.002 A 
ATOM     35  C   UNL     1       4.889   3.106  -6.056  1.00  0.00     0.000 A 
ENDBRANCH  26  30
ENDBRANCH   7  23
TORSDOF 4
