REMARK SMILES CN(C)c1ccc(/C=C(\NC(=O)c2ccccc2)C(=O)N/N=C/c2ccc(OCc3ccccc3)cc2)cc1
REMARK SMILES IDX 22 1 23 2 21 3 19 4 20 5 9 7 8 8 7 9 4 10 39 11 5 12 38 13
REMARK SMILES IDX 6 14 2 15 1 16 3 17 10 18 11 19 12 21 13 22 18 23 14 24
REMARK SMILES IDX 17 25 15 26 16 27 24 28 37 29 25 30 36 31 26 32 27 33 28 34
REMARK SMILES IDX 29 35 30 36 35 37 31 38 34 39 32 40 33 41
REMARK H PARENT 21 6 10 20
REMARK Flexibility Score: inf
ROOT
ATOM      1  N   UNL     1       3.425   1.340   0.047  1.00  0.00    -0.180 NA
ATOM      2  C   UNL     1       2.361   0.600  -0.031  1.00  0.00     0.141 C 
ENDROOT
BRANCH   1   3
ATOM      3  N   UNL     1       4.694   0.749   0.005  1.00  0.00    -0.242 N 
ATOM      4  C   UNL     1       5.798   1.517   0.087  1.00  0.00     0.287 C 
ATOM      5  O   UNL     1       5.696   2.729   0.113  1.00  0.00    -0.266 OA
ATOM      6  H   UNL     1       4.783  -0.273  -0.088  1.00  0.00     0.194 HD
BRANCH   4   7
ATOM      7  C   UNL     1       7.124   0.891   0.145  1.00  0.00     0.109 C 
ATOM      8  C   UNL     1       8.235   1.663   0.225  1.00  0.00     0.040 C 
BRANCH   8   9
ATOM      9  C   UNL     1       9.549   1.041   0.433  1.00  0.00    -0.023 A 
ATOM     10  C   UNL     1      12.029  -0.134   0.827  1.00  0.00     0.036 A 
ATOM     11  C   UNL     1      10.874  -0.805   1.216  1.00  0.00     0.026 A 
ATOM     12  C   UNL     1      11.943   1.126   0.241  1.00  0.00     0.026 A 
ATOM     13  C   UNL     1       9.641  -0.224   1.028  1.00  0.00     0.010 A 
ATOM     14  C   UNL     1      10.714   1.713   0.044  1.00  0.00     0.010 A 
BRANCH  10  15
ATOM     15  N   UNL     1      13.275  -0.724   1.026  1.00  0.00    -0.378 N 
ATOM     16  C   UNL     1      14.497   0.030   0.733  1.00  0.00     0.143 C 
ATOM     17  C   UNL     1      13.364  -2.097   1.527  1.00  0.00     0.143 C 
ENDBRANCH  10  15
ENDBRANCH   8   9
BRANCH   7  18
ATOM     18  N   UNL     1       7.242  -0.503   0.117  1.00  0.00    -0.317 N 
ATOM     19  C   UNL     1       6.631  -1.250   1.058  1.00  0.00     0.255 C 
ATOM     20  H   UNL     1       7.796  -0.958  -0.622  1.00  0.00     0.170 HD
ATOM     21  O   UNL     1       5.901  -0.721   1.874  1.00  0.00    -0.269 OA
BRANCH  19  22
ATOM     22  C   UNL     1       6.849  -2.711   1.098  1.00  0.00     0.040 A 
ATOM     23  C   UNL     1       6.217  -3.487   2.072  1.00  0.00     0.014 A 
ATOM     24  C   UNL     1       7.682  -3.322   0.160  1.00  0.00     0.014 A 
ATOM     25  C   UNL     1       6.425  -4.851   2.103  1.00  0.00     0.001 A 
ATOM     26  C   UNL     1       7.885  -4.686   0.206  1.00  0.00     0.001 A 
ATOM     27  C   UNL     1       7.256  -5.449   1.173  1.00  0.00     0.000 A 
ENDBRANCH  19  22
ENDBRANCH   7  18
ENDBRANCH   4   7
ENDBRANCH   1   3
BRANCH   2  28
ATOM     28  C   UNL     1       1.025   1.222   0.013  1.00  0.00    -0.005 A 
ATOM     29  C   UNL     1       0.902   2.608   0.141  1.00  0.00     0.013 A 
ATOM     30  C   UNL     1      -0.121   0.428  -0.071  1.00  0.00     0.013 A 
ATOM     31  C   UNL     1      -0.349   3.186   0.182  1.00  0.00     0.047 A 
ATOM     32  C   UNL     1      -1.368   1.014  -0.035  1.00  0.00     0.047 A 
ATOM     33  C   UNL     1      -1.486   2.392   0.098  1.00  0.00     0.119 A 
BRANCH  33  34
ATOM     34  O   UNL     1      -2.716   2.966   0.139  1.00  0.00    -0.489 OA
BRANCH  34  35
ATOM     35  C   UNL     1      -3.843   2.091   0.047  1.00  0.00     0.265 C 
BRANCH  35  36
ATOM     36  C   UNL     1      -5.113   2.900   0.109  1.00  0.00    -0.011 A 
ATOM     37  C   UNL     1      -5.684   3.381  -1.054  1.00  0.00     0.007 A 
ATOM     38  C   UNL     1      -5.710   3.156   1.330  1.00  0.00     0.007 A 
ATOM     39  C   UNL     1      -6.849   4.123  -0.997  1.00  0.00     0.000 A 
ATOM     40  C   UNL     1      -6.872   3.902   1.387  1.00  0.00     0.000 A 
ATOM     41  C   UNL     1      -7.443   4.383   0.224  1.00  0.00     0.000 A 
ENDBRANCH  35  36
ENDBRANCH  34  35
ENDBRANCH  33  34
ENDBRANCH   2  28
TORSDOF 10
