REMARK SMILES O=C1CCCc2cc(C(=O)NCc3ccccc3-c3ccc(C[NH+]4CCCC4)cc3)ccc2N1
REMARK SMILES IDX 12 1 13 2 15 3 14 4 16 5 17 6 18 7 19 8 30 9 20 10 29 11
REMARK SMILES IDX 21 12 22 13 23 14 24 15 28 16 25 17 27 19 26 20 11 21 9 22
REMARK SMILES IDX 10 24 8 25 7 26 31 27 6 28 32 29 33 30 5 31 4 32 34 34 2 35
REMARK SMILES IDX 1 37 3 38
REMARK H PARENT 24 18 11 23 34 36
REMARK Flexibility Score: 90.00
ROOT
ATOM      1  C   UNL     1      -6.223  -1.032  -0.067  1.00  0.00     0.152 C 
ENDROOT
BRANCH   1   2
ATOM      2  C   UNL     1      -7.333  -0.023   0.074  1.00  0.00    -0.021 A 
ATOM      3  C   UNL     1      -8.904   1.156   1.444  1.00  0.00     0.000 A 
ATOM      4  C   UNL     1      -7.886   0.229   1.313  1.00  0.00     0.006 A 
ATOM      5  C   UNL     1      -9.374   1.836   0.335  1.00  0.00     0.001 A 
ATOM      6  C   UNL     1      -8.828   1.592  -0.909  1.00  0.00     0.009 A 
ATOM      7  C   UNL     1      -7.799   0.663  -1.046  1.00  0.00    -0.013 A 
BRANCH   7   8
ATOM      8  C   UNL     1      -7.205   0.401  -2.380  1.00  0.00    -0.018 A 
ATOM      9  C   UNL     1      -7.186  -0.893  -2.896  1.00  0.00     0.009 A 
ATOM     10  C   UNL     1      -6.668   1.449  -3.124  1.00  0.00     0.009 A 
ATOM     11  C   UNL     1      -6.632  -1.131  -4.137  1.00  0.00     0.010 A 
ATOM     12  C   UNL     1      -6.112   1.199  -4.362  1.00  0.00     0.010 A 
ATOM     13  C   UNL     1      -6.096  -0.088  -4.869  1.00  0.00     0.006 A 
BRANCH  13  14
ATOM     14  C   UNL     1      -5.492  -0.353  -6.224  1.00  0.00     0.299 C 
BRANCH  14  15
ATOM     15  N   UNL     1      -6.529  -0.221  -7.257  1.00  0.00    -0.331 N 
ATOM     16  C   UNL     1      -5.934  -0.238  -8.611  1.00  0.00     0.262 C 
ATOM     17  C   UNL     1      -7.233   1.081  -7.140  1.00  0.00     0.262 C 
ATOM     18  H   UNL     1      -7.175  -1.012  -7.120  1.00  0.00     0.348 HD
ATOM     19  C   UNL     1      -6.781   0.701  -9.488  1.00  0.00     0.067 C 
ATOM     20  C   UNL     1      -7.864   1.270  -8.543  1.00  0.00     0.067 C 
ENDBRANCH  14  15
ENDBRANCH  13  14
ENDBRANCH   7   8
ENDBRANCH   1   2
BRANCH   1  21
ATOM     21  N   UNL     1      -4.950  -0.335  -0.265  1.00  0.00    -0.348 N 
ATOM     22  C   UNL     1      -3.830  -1.037  -0.525  1.00  0.00     0.251 C 
ATOM     23  H   UNL     1      -4.912   0.693  -0.204  1.00  0.00     0.164 HD
ATOM     24  O   UNL     1      -3.876  -2.250  -0.596  1.00  0.00    -0.269 OA
BRANCH  22  25
ATOM     25  C   UNL     1      -2.548  -0.334  -0.724  1.00  0.00     0.040 A 
ATOM     26  C   UNL     1      -1.386  -1.050  -0.994  1.00  0.00     0.019 A 
ATOM     27  C   UNL     1      -2.485   1.060  -0.645  1.00  0.00     0.016 A 
ATOM     28  C   UNL     1      -0.167  -0.408  -1.186  1.00  0.00    -0.024 A 
ATOM     29  C   UNL     1      -1.286   1.691  -0.837  1.00  0.00     0.027 A 
ATOM     30  C   UNL     1      -0.107   0.970  -1.116  1.00  0.00     0.044 A 
BRANCH  28  31
ATOM     31  C   UNL     1       0.995  -1.308  -1.454  1.00  0.00     0.038 C 
BRANCH  31  32
ATOM     32  C   UNL     1       2.304  -0.873  -0.873  1.00  0.00     0.015 CG0
ATOM     33  G   UNL     1       2.969   0.236  -1.652  1.00  0.00     0.000 G0
ENDBRANCH  31  32
ENDBRANCH  28  31
BRANCH  30  34
ATOM     34  N   UNL     1       1.008   1.746  -1.302  1.00  0.00    -0.326 N 
ATOM     35  C   UNL     1       2.286   1.541  -1.451  1.00  0.00     0.224 C 
ATOM     36  H   UNL     1       0.776   2.749  -1.331  1.00  0.00     0.169 HD
ATOM     37  O   UNL     1       2.996   2.524  -1.423  1.00  0.00    -0.275 OA
BRANCH  35  38
ATOM     38  C   UNL     1       2.969   0.236  -1.652  1.00  0.00     0.101 CG0
ATOM     39  G   UNL     1       2.304  -0.873  -0.873  1.00  0.00     0.000 G0
ENDBRANCH  35  38
ENDBRANCH  30  34
ENDBRANCH  22  25
ENDBRANCH   1  21
TORSDOF 6
