REMARK SMILES COC(=O)c1[nH]c2ccc(C)cc2c1NC(=O)CN1CCN([C@H](c2ccccc2)c2ccc(Cl)cc2)CC1
REMARK SMILES IDX 15 1 16 2 17 3 14 5 11 6 10 7 12 8 9 9 13 10 8 11 7 12 6 13
REMARK SMILES IDX 5 14 3 16 4 17 2 18 1 19 18 20 19 21 20 22 38 23 21 24 37 25
REMARK SMILES IDX 22 26 23 27 24 28 29 29 25 30 28 31 26 32 27 33 30 34 36 35
REMARK SMILES IDX 31 36 35 37 32 38 33 39 34 40
REMARK H PARENT 15 4 6 15
REMARK Flexibility Score: inf
ROOT
ATOM      1  N   UNL     1      -1.300  -0.713  -0.531  1.00  0.00    -0.322 N 
ATOM      2  C   UNL     1      -0.529   0.117   0.199  1.00  0.00     0.238 C 
ATOM      3  O   UNL     1       0.160  -0.326   1.094  1.00  0.00    -0.273 OA
ATOM      4  H   UNL     1      -1.960  -0.327  -1.222  1.00  0.00     0.170 HD
ENDROOT
BRANCH   1   5
ATOM      5  C   UNL     1      -1.207  -2.089  -0.351  1.00  0.00     0.082 A 
ATOM      6  C   UNL     1       3.573  -3.375  -1.627  1.00  0.00     0.044 C 
ATOM      7  C   UNL     1       2.174  -3.670  -1.151  1.00  0.00    -0.050 A 
ATOM      8  C   UNL     1       1.272  -2.652  -1.028  1.00  0.00     0.016 A 
ATOM      9  C   UNL     1       1.811  -4.975  -0.843  1.00  0.00     0.005 A 
ATOM     10  C   UNL     1      -0.027  -2.924  -0.588  1.00  0.00     0.024 A 
ATOM     11  C   UNL     1       0.541  -5.264  -0.398  1.00  0.00     0.027 A 
ATOM     12  C   UNL     1      -0.398  -4.243  -0.269  1.00  0.00     0.048 A 
ATOM     13  N   UNL     1      -1.715  -4.229   0.126  1.00  0.00    -0.347 N 
ATOM     14  C   UNL     1      -2.208  -2.934   0.079  1.00  0.00     0.149 A 
ATOM     15  H   UNL     1      -2.255  -5.058   0.414  1.00  0.00     0.167 HD
BRANCH  14  16
ATOM     16  C   UNL     1      -3.529  -2.542   0.419  1.00  0.00     0.356 C 
ATOM     17  O   UNL     1      -3.814  -1.361   0.484  1.00  0.00    -0.244 OA
BRANCH  16  18
ATOM     18  O   UNL     1      -4.467  -3.478   0.669  1.00  0.00    -0.464 OA
ATOM     19  C   UNL     1      -5.776  -3.012   1.005  1.00  0.00     0.282 C 
ENDBRANCH  16  18
ENDBRANCH  14  16
ENDBRANCH   1   5
BRANCH   2  20
ATOM     20  C   UNL     1      -0.521   1.594  -0.096  1.00  0.00     0.185 C 
BRANCH  20  21
ATOM     21  N   UNL     1       0.418   2.262   0.830  1.00  0.00    -0.292 NA
ATOM     22  C   UNL     1      -0.105   2.200   2.211  1.00  0.00     0.100 C 
ATOM     23  C   UNL     1       0.611   3.671   0.427  1.00  0.00     0.100 C 
ATOM     24  C   UNL     1       0.912   2.848   3.154  1.00  0.00     0.101 C 
ATOM     25  C   UNL     1       1.627   4.319   1.369  1.00  0.00     0.101 C 
ATOM     26  N   UNL     1       1.104   4.257   2.751  1.00  0.00    -0.290 NA
BRANCH  26  27
ATOM     27  C   UNL     1       2.043   4.925   3.677  1.00  0.00     0.117 C 
BRANCH  27  28
ATOM     28  C   UNL     1       1.500   4.827   5.080  1.00  0.00    -0.026 A 
ATOM     29  C   UNL     1       2.358   4.596   6.138  1.00  0.00     0.006 A 
ATOM     30  C   UNL     1       0.145   4.976   5.308  1.00  0.00     0.006 A 
ATOM     31  C   UNL     1       1.860   4.506   7.425  1.00  0.00     0.000 A 
ATOM     32  C   UNL     1      -0.353   4.882   6.594  1.00  0.00     0.000 A 
ATOM     33  C   UNL     1       0.504   4.650   7.653  1.00  0.00     0.000 A 
ENDBRANCH  27  28
BRANCH  27  34
ATOM     34  C   UNL     1       2.168   6.375   3.286  1.00  0.00    -0.026 A 
ATOM     35  C   UNL     1       3.398   7.003   3.348  1.00  0.00     0.007 A 
ATOM     36  C   UNL     1       1.054   7.074   2.861  1.00  0.00     0.007 A 
ATOM     37  C   UNL     1       3.513   8.333   2.989  1.00  0.00     0.021 A 
ATOM     38  C   UNL     1       1.167   8.405   2.508  1.00  0.00     0.021 A 
ATOM     39  C   UNL     1       2.398   9.035   2.569  1.00  0.00     0.041 A 
ATOM     40  Cl  UNL     1       2.542  10.705   2.118  1.00  0.00    -0.084 Cl
ENDBRANCH  27  34
ENDBRANCH  26  27
ENDBRANCH  20  21
ENDBRANCH   2  20
TORSDOF 8
