REMARK SMILES Nc1nonc1-c1nc2ccccc2n1CC(=O)N/N=C/c1ccc(-c2cccc(Cl)c2Cl)o1
REMARK SMILES IDX 17 1 18 2 19 3 16 5 15 6 11 7 10 8 12 9 9 10 13 11 14 12
REMARK SMILES IDX 8 13 7 14 6 15 5 16 2 17 4 18 3 19 1 20 20 23 21 24 22 25
REMARK SMILES IDX 34 26 23 27 25 28 24 29 26 30 32 31 27 32 30 33 33 34 28 35
REMARK SMILES IDX 29 36 31 37
REMARK H PARENT 19 4 1 21 1 22
REMARK Flexibility Score: inf
ROOT
ATOM      1  C   UNL     1      -4.189   3.732  -1.361  1.00  0.00     0.260 C 
ATOM      2  O   UNL     1      -3.422   3.879  -2.289  1.00  0.00    -0.271 OA
ATOM      3  N   UNL     1      -5.495   3.495  -1.597  1.00  0.00    -0.245 N 
ATOM      4  H   UNL     1      -6.146   3.371  -0.808  1.00  0.00     0.193 HD
ENDROOT
BRANCH   1   5
ATOM      5  C   UNL     1      -3.682   3.814   0.056  1.00  0.00     0.226 C 
BRANCH   5   6
ATOM      6  N   UNL     1      -2.241   4.078   0.044  1.00  0.00    -0.313 N 
ATOM      7  C   UNL     1       1.183   1.781   0.000  1.00  0.00     0.002 A 
ATOM      8  C   UNL     1       1.187   3.147   0.007  1.00  0.00     0.030 A 
ATOM      9  C   UNL     1      -0.013   1.076   0.008  1.00  0.00     0.002 A 
ATOM     10  C   UNL     1      -0.025   3.847   0.022  1.00  0.00     0.089 A 
ATOM     11  C   UNL     1      -1.218   1.744   0.017  1.00  0.00     0.028 A 
ATOM     12  C   UNL     1      -1.236   3.132   0.030  1.00  0.00     0.069 A 
ATOM     13  N   UNL     1      -0.338   5.165   0.032  1.00  0.00    -0.226 NA
ATOM     14  C   UNL     1      -1.640   5.307   0.045  1.00  0.00     0.167 A 
BRANCH  14  15
ATOM     15  C   UNL     1      -2.354   6.603   0.059  1.00  0.00     0.194 A 
ATOM     16  N   UNL     1      -3.650   6.830   0.074  1.00  0.00    -0.044 NA
ATOM     17  C   UNL     1      -1.789   7.973   0.067  1.00  0.00     0.199 A 
ATOM     18  O   UNL     1      -3.848   8.022   0.083  1.00  0.00    -0.242 OA
ATOM     19  N   UNL     1      -2.865   8.725   0.077  1.00  0.00    -0.032 NA
BRANCH  17  20
ATOM     20  N   UNL     1      -0.457   8.364   0.064  1.00  0.00    -0.379 N 
ATOM     21  H   UNL     1       0.203   7.572   0.054  1.00  0.00     0.158 HD
ATOM     22  H   UNL     1      -0.131   9.341   0.070  1.00  0.00     0.158 HD
ENDBRANCH  17  20
ENDBRANCH  14  15
ENDBRANCH   5   6
ENDBRANCH   1   5
BRANCH   3  23
ATOM     23  N   UNL     1      -5.966   3.418  -2.914  1.00  0.00    -0.177 NA
ATOM     24  C   UNL     1      -7.228   3.190  -3.141  1.00  0.00     0.180 C 
BRANCH  24  25
ATOM     25  C   UNL     1      -7.720   3.110  -4.518  1.00  0.00     0.147 A 
ATOM     26  O   UNL     1      -6.977   3.253  -5.634  1.00  0.00    -0.455 OA
ATOM     27  C   UNL     1      -9.022   2.869  -4.898  1.00  0.00     0.053 A 
ATOM     28  C   UNL     1      -7.766   3.116  -6.717  1.00  0.00     0.136 A 
ATOM     29  C   UNL     1      -9.043   2.880  -6.299  1.00  0.00     0.052 A 
BRANCH  28  30
ATOM     30  C   UNL     1      -7.323   3.207  -8.122  1.00  0.00     0.037 A 
ATOM     31  C   UNL     1      -6.551   4.291  -8.546  1.00  0.00     0.070 A 
ATOM     32  C   UNL     1      -7.669   2.205  -9.033  1.00  0.00     0.013 A 
ATOM     33  C   UNL     1      -6.139   4.368  -9.863  1.00  0.00     0.060 A 
ATOM     34  Cl  UNL     1      -6.109   5.538  -7.422  1.00  0.00    -0.082 Cl
ATOM     35  C   UNL     1      -7.257   2.298 -10.345  1.00  0.00     0.002 A 
ATOM     36  C   UNL     1      -6.492   3.374 -10.760  1.00  0.00     0.022 A 
ATOM     37  Cl  UNL     1      -5.179   5.714 -10.394  1.00  0.00    -0.083 Cl
ENDBRANCH  28  30
ENDBRANCH  24  25
ENDBRANCH   3  23
TORSDOF 7
