REMARK SMILES CC(=O)NCCc1ccc(-c2csc(NC(=O)/C=C/c3csc(-c4ccc(F)cc4)n3)n2)cc1
REMARK SMILES IDX 11 1 12 2 13 3 14 4 32 5 10 6 7 7 34 8 8 9 33 10 9 11 6 12
REMARK SMILES IDX 5 13 4 14 1 15 2 16 3 17 15 19 16 20 17 22 18 23 19 24 20 25
REMARK SMILES IDX 31 26 21 27 23 28 22 29 24 30 30 31 25 32 29 33 26 34 27 35
REMARK SMILES IDX 28 36
REMARK H PARENT 4 18 15 21
REMARK Flexibility Score: inf
ROOT
ATOM      1  C   UNL     1       0.002  -0.004   0.002  1.00  0.00     0.084 A 
ATOM      2  C   UNL     1      -1.169  -0.710   0.009  1.00  0.00     0.097 A 
ATOM      3  S   UNL     1      -0.545  -2.386  -0.006  1.00  0.00    -0.105 S 
ATOM      4  C   UNL     1       1.195  -1.977  -0.021  1.00  0.00     0.190 A 
ATOM      5  N   UNL     1       1.155  -0.657  -0.018  1.00  0.00    -0.220 NA
ENDROOT
BRANCH   1   6
ATOM      6  C   UNL     1      -0.018   1.479   0.010  1.00  0.00     0.001 A 
ATOM      7  C   UNL     1      -0.056   4.247   0.024  1.00  0.00    -0.046 A 
ATOM      8  C   UNL     1      -1.246   3.542   0.032  1.00  0.00     0.004 A 
ATOM      9  C   UNL     1       1.153   3.575   0.010  1.00  0.00     0.004 A 
ATOM     10  C   UNL     1      -1.233   2.162   0.020  1.00  0.00     0.010 A 
ATOM     11  C   UNL     1       1.178   2.195   0.003  1.00  0.00     0.010 A 
BRANCH   7  12
ATOM     12  C   UNL     1      -0.076   5.754   0.031  1.00  0.00     0.056 C 
BRANCH  12  13
ATOM     13  C   UNL     1      -0.096   6.270  -1.409  1.00  0.00     0.120 C 
BRANCH  13  14
ATOM     14  N   UNL     1      -0.116   7.735  -1.403  1.00  0.00    -0.356 N 
ATOM     15  C   UNL     1      -0.157   9.921  -2.560  1.00  0.00     0.114 C 
ATOM     16  C   UNL     1      -0.136   8.414  -2.567  1.00  0.00     0.216 C 
ATOM     17  O   UNL     1      -0.138   7.812  -3.620  1.00  0.00    -0.275 OA
ATOM     18  H   UNL     1      -0.115   8.246  -0.508  1.00  0.00     0.163 HD
ENDBRANCH  13  14
ENDBRANCH  12  13
ENDBRANCH   7  12
ENDBRANCH   1   6
BRANCH   4  19
ATOM     19  N   UNL     1       2.296  -2.822  -0.036  1.00  0.00    -0.298 N 
ATOM     20  C   UNL     1       2.119  -4.158  -0.042  1.00  0.00     0.250 C 
ATOM     21  H   UNL     1       3.247  -2.428  -0.043  1.00  0.00     0.172 HD
ATOM     22  O   UNL     1       0.994  -4.624  -0.034  1.00  0.00    -0.270 OA
BRANCH  20  23
ATOM     23  C   UNL     1       3.243  -5.020  -0.057  1.00  0.00     0.074 C 
ATOM     24  C   UNL     1       3.066  -6.361  -0.063  1.00  0.00     0.035 C 
BRANCH  24  25
ATOM     25  C   UNL     1       4.230  -7.255  -0.079  1.00  0.00     0.075 A 
ATOM     26  N   UNL     1       5.460  -6.761  -0.088  1.00  0.00    -0.237 NA
ATOM     27  C   UNL     1       4.064  -8.631  -0.080  1.00  0.00     0.095 A 
ATOM     28  C   UNL     1       6.498  -7.576  -0.102  1.00  0.00     0.124 A 
ATOM     29  S   UNL     1       5.711  -9.179  -0.105  1.00  0.00    -0.122 S 
BRANCH  28  30
ATOM     30  C   UNL     1       7.940  -7.247  -0.114  1.00  0.00     0.011 A 
ATOM     31  C   UNL     1       8.891  -8.268  -0.129  1.00  0.00     0.014 A 
ATOM     32  C   UNL     1       8.354  -5.914  -0.116  1.00  0.00     0.014 A 
ATOM     33  C   UNL     1      10.235  -7.955  -0.140  1.00  0.00     0.040 A 
ATOM     34  C   UNL     1       9.699  -5.612  -0.122  1.00  0.00     0.040 A 
ATOM     35  C   UNL     1      10.640  -6.630  -0.136  1.00  0.00     0.123 A 
ATOM     36  F   UNL     1      11.957  -6.329  -0.147  1.00  0.00    -0.207 F 
ENDBRANCH  28  30
ENDBRANCH  24  25
ENDBRANCH  20  23
ENDBRANCH   4  19
TORSDOF 8
