REMARK SMILES O=C(NCC[N@@H+]1CCc2ccccc2C1)c1ccc2c(=O)n(CCc3ccccc3)c([S-])nc2c1
REMARK SMILES IDX 22 1 20 2 21 3 19 4 18 5 17 6 16 7 35 8 34 9 33 10 31 11
REMARK SMILES IDX 32 12 23 13 24 14 25 15 28 16 29 17 27 18 30 19 26 20 2 21
REMARK SMILES IDX 1 22 3 23 4 25 5 26 6 27 15 28 7 29 14 31 8 32 9 33 13 34
REMARK SMILES IDX 10 35 12 36 11 37
REMARK H PARENT 3 24 6 30
REMARK Flexibility Score: inf
ROOT
ATOM      1  N   UNL     1       2.339   1.503  -0.012  1.00  0.00    -0.316 N 
ATOM      2  C   UNL     1       2.470   0.159  -0.021  1.00  0.00     0.259 A 
ATOM      3  O   UNL     1       3.568  -0.361  -0.034  1.00  0.00    -0.269 OA
ATOM      4  C   UNL     1       1.243  -0.664  -0.013  1.00  0.00     0.066 A 
ATOM      5  C   UNL     1       1.298  -2.055  -0.020  1.00  0.00     0.017 A 
ATOM      6  C   UNL     1       0.130  -2.785  -0.013  1.00  0.00     0.015 A 
ATOM      7  C   UNL     1      -1.107  -2.135   0.002  1.00  0.00     0.041 A 
ATOM      8  C   UNL     1      -1.170  -0.743   0.010  1.00  0.00     0.043 A 
ATOM      9  C   UNL     1       0.002  -0.004   0.002  1.00  0.00     0.076 A 
ATOM     10  N   UNL     1      -0.017   1.383   0.010  1.00  0.00    -0.259 NA
ATOM     11  C   UNL     1       1.129   2.085   0.003  1.00  0.00    -0.012 A 
ATOM     12  S   UNL     1       1.044   3.795   0.012  1.00  0.00    -0.742 S 
ENDROOT
BRANCH   1  13
ATOM     13  C   UNL     1       3.540   2.342  -0.019  1.00  0.00     0.130 C 
BRANCH  13  14
ATOM     14  C   UNL     1       3.944   2.641  -1.464  1.00  0.00     0.057 C 
BRANCH  14  15
ATOM     15  C   UNL     1       5.180   3.504  -1.471  1.00  0.00    -0.046 A 
ATOM     16  C   UNL     1       7.447   5.087  -1.485  1.00  0.00     0.000 A 
ATOM     17  C   UNL     1       6.194   5.673  -1.470  1.00  0.00     0.000 A 
ATOM     18  C   UNL     1       7.565   3.710  -1.494  1.00  0.00     0.000 A 
ATOM     19  C   UNL     1       5.061   4.881  -1.468  1.00  0.00     0.004 A 
ATOM     20  C   UNL     1       6.432   2.918  -1.486  1.00  0.00     0.004 A 
ENDBRANCH  14  15
ENDBRANCH  13  14
ENDBRANCH   1  13
BRANCH   7  21
ATOM     21  C   UNL     1      -2.357  -2.929   0.010  1.00  0.00     0.251 C 
ATOM     22  O   UNL     1      -3.434  -2.366   0.024  1.00  0.00    -0.269 OA
ATOM     23  N   UNL     1      -2.300  -4.275   0.003  1.00  0.00    -0.346 N 
ATOM     24  H   UNL     1      -1.387  -4.752  -0.008  1.00  0.00     0.164 HD
BRANCH  23  25
ATOM     25  C   UNL     1      -3.537  -5.061   0.011  1.00  0.00     0.177 C 
BRANCH  25  26
ATOM     26  C   UNL     1      -3.194  -6.552   0.000  1.00  0.00     0.284 C 
BRANCH  26  27
ATOM     27  N   UNL     1      -4.434  -7.340   0.008  1.00  0.00    -0.329 N 
ATOM     28  C   UNL     1      -5.387  -6.829  -0.981  1.00  0.00     0.299 C 
ATOM     29  C   UNL     1      -4.155  -8.763  -0.240  1.00  0.00     0.267 C 
ATOM     30  H   UNL     1      -4.855  -7.248   0.944  1.00  0.00     0.348 HD
ATOM     31  C   UNL     1      -6.613  -7.703  -1.032  1.00  0.00     0.010 A 
ATOM     32  C   UNL     1      -5.396  -9.573   0.139  1.00  0.00     0.097 C 
ATOM     33  C   UNL     1      -6.617  -8.980  -0.515  1.00  0.00    -0.034 A 
ATOM     34  C   UNL     1      -7.762  -7.195  -1.621  1.00  0.00     0.010 A 
ATOM     35  C   UNL     1      -7.768  -9.751  -0.590  1.00  0.00     0.004 A 
ATOM     36  C   UNL     1      -8.907  -7.962  -1.693  1.00  0.00     0.001 A 
ATOM     37  C   UNL     1      -8.910  -9.245  -1.176  1.00  0.00     0.000 A 
ENDBRANCH  26  27
ENDBRANCH  25  26
ENDBRANCH  23  25
ENDBRANCH   7  21
TORSDOF 7
