REMARK SMILES CNC(=O)c1nn(CN(C)Cc2cc(C#N)ccc2F)c(=O)c2ccccc12
REMARK SMILES IDX 9 1 10 2 8 3 7 4 5 5 6 6 28 7 23 8 27 9 21 10 24 11 26 12
REMARK SMILES IDX 22 13 25 14 3 15 1 16 2 17 4 19 11 20 12 21 19 22 13 23
REMARK SMILES IDX 18 24 20 25 14 26 17 27 15 28 16 29
REMARK H PARENT 2 18
REMARK Flexibility Score: inf
ROOT
ATOM      1  N   UNL     1      -2.580  -3.317   1.418  1.00  0.00    -0.283 NA
ATOM      2  C   UNL     1      -1.607  -4.418   1.436  1.00  0.00     0.107 C 
ENDROOT
BRANCH   1   3
ATOM      3  C   UNL     1      -2.414  -2.488   0.216  1.00  0.00     0.235 C 
BRANCH   3   4
ATOM      4  N   UNL     1      -1.312  -1.545   0.421  1.00  0.00    -0.214 N 
ATOM      5  C   UNL     1       0.956  -1.255   0.532  1.00  0.00     0.156 A 
ATOM      6  N   UNL     1      -0.115  -1.992   0.367  1.00  0.00    -0.162 NA
ATOM      7  C   UNL     1       0.803   0.184   0.799  1.00  0.00     0.020 A 
ATOM      8  C   UNL     1      -0.513   0.698   0.863  1.00  0.00     0.051 A 
ATOM      9  C   UNL     1       1.887   1.035   0.986  1.00  0.00     0.011 A 
ATOM     10  C   UNL     1      -1.615  -0.252   0.657  1.00  0.00     0.275 A 
ATOM     11  C   UNL     1      -0.718   2.052   1.112  1.00  0.00     0.014 A 
ATOM     12  C   UNL     1       1.663   2.373   1.232  1.00  0.00     0.001 A 
ATOM     13  O   UNL     1      -2.773   0.120   0.697  1.00  0.00    -0.267 OA
ATOM     14  C   UNL     1       0.370   2.878   1.294  1.00  0.00     0.001 A 
BRANCH   5  15
ATOM     15  C   UNL     1       2.300  -1.861   0.452  1.00  0.00     0.272 C 
ATOM     16  C   UNL     1       3.764  -3.781   0.127  1.00  0.00     0.143 C 
ATOM     17  N   UNL     1       2.431  -3.180   0.207  1.00  0.00    -0.354 N 
ATOM     18  H   UNL     1       1.593  -3.765   0.076  1.00  0.00     0.163 HD
ATOM     19  O   UNL     1       3.289  -1.170   0.606  1.00  0.00    -0.267 OA
ENDBRANCH   5  15
ENDBRANCH   3   4
ENDBRANCH   1   3
BRANCH   1  20
ATOM     20  C   UNL     1      -3.954  -3.827   1.521  1.00  0.00     0.124 C 
BRANCH  20  21
ATOM     21  C   UNL     1      -4.197  -4.334   2.919  1.00  0.00     0.003 A 
ATOM     22  C   UNL     1      -4.384  -3.436   3.958  1.00  0.00     0.127 A 
ATOM     23  C   UNL     1      -4.240  -5.691   3.161  1.00  0.00     0.027 A 
ATOM     24  C   UNL     1      -4.609  -3.896   5.247  1.00  0.00     0.041 A 
ATOM     25  F   UNL     1      -4.347  -2.108   3.714  1.00  0.00    -0.207 F 
ATOM     26  C   UNL     1      -4.461  -6.160   4.458  1.00  0.00     0.053 A 
ATOM     27  C   UNL     1      -4.648  -5.250   5.501  1.00  0.00     0.022 A 
BRANCH  26  28
ATOM     28  C   UNL     1      -4.500  -7.568   4.716  1.00  0.00     0.099 C 
ATOM     29  N   UNL     1      -4.532  -8.685   4.921  1.00  0.00    -0.192 NA
ENDBRANCH  26  28
ENDBRANCH  20  21
ENDBRANCH   1  20
TORSDOF 6
