REMARK SMILES C[NH2+][C@@H](C)[C@H]1[C@H](O)C[C@@]2(C)[C@@H]3CC[C@@H]4C(=CC[C@@H]5N=C(C(C)C)OC[C@]54C)C[C@H]3C(=O)C[C@]12C
REMARK SMILES IDX 29 1 11 2 9 3 8 4 6 5 5 6 33 7 32 8 30 9 31 10 34 11 10 12
REMARK SMILES IDX 28 13 15 14 20 15 24 16 19 17 25 18 18 19 26 20 17 21 14 22
REMARK SMILES IDX 27 23 16 24 21 26 22 27 23 28 12 29 13 30 3 32 4 33 2 34
REMARK SMILES IDX 1 35 7 38
REMARK H PARENT 2 36 2 37 7 39
REMARK Flexibility Score: 90.00
ROOT
ATOM      1  C   UNL     1      -4.447   3.866   6.699  1.00  0.00     0.064 C 
ATOM      2  C   UNL     1      -4.207   2.764   7.765  1.00  0.00     0.006 C 
ATOM      3  C   UNL     1      -3.814   3.454   9.069  1.00  0.00    -0.020 C 
ATOM      4  C   UNL     1      -3.607   2.509  10.259  1.00  0.00     0.040 C 
ATOM      5  C   UNL     1      -3.750   3.449  11.485  1.00  0.00     0.124 C 
ATOM      6  C   UNL     1      -4.594   4.657  11.013  1.00  0.00     0.083 C 
ATOM      7  C   UNL     1      -4.976   4.351   9.564  1.00  0.00    -0.009 C 
ATOM      8  C   UNL     1      -4.987   5.568   8.643  1.00  0.00     0.083 C 
ATOM      9  C   UNL     1      -5.237   5.025   7.252  1.00  0.00     0.137 C 
ATOM     10  O   UNL     1      -6.093   5.533   6.568  1.00  0.00    -0.299 OA
ATOM     11  C   UNL     1      -6.310   3.605   9.490  1.00  0.00     0.013 C 
ATOM     12  C   UNL     1      -2.559   4.300   8.849  1.00  0.00     0.012 C 
ENDROOT
BRANCH   1  13
ATOM     13  C   UNL     1      -5.290   3.227   5.590  1.00  0.00     0.042 C 
BRANCH  13  14
ATOM     14  C   UNL     1      -4.443   2.741   4.452  1.00  0.00    -0.070 C 
ATOM     15  C   UNL     1      -1.172   0.554   1.382  1.00  0.00     0.186 C 
ATOM     16  O   UNL     1      -0.858   0.020   2.574  1.00  0.00    -0.480 OA
ATOM     17  N   UNL     1      -1.995   1.521   1.221  1.00  0.00    -0.251 NA
ATOM     18  C   UNL     1      -1.226   0.748   3.752  1.00  0.00     0.240 C 
ATOM     19  C   UNL     1      -2.674   2.174   2.331  1.00  0.00     0.122 C 
ATOM     20  C   UNL     1      -2.659   1.252   3.560  1.00  0.00     0.031 C 
ATOM     21  C   UNL     1      -4.136   2.468   1.995  1.00  0.00     0.055 C 
ATOM     22  C   UNL     1      -3.108   2.071   4.766  1.00  0.00     0.026 CG0
ATOM     23  C   UNL     1      -3.614   0.076   3.342  1.00  0.00     0.018 C 
ATOM     24  C   UNL     1      -4.862   2.902   3.232  1.00  0.00    -0.025 C 
ATOM     25  G   UNL     1      -3.297   1.173   5.976  1.00  0.00     0.000 G0
BRANCH  15  26
ATOM     26  C   UNL     1      -0.518  -0.026   0.155  1.00  0.00     0.069 C 
ATOM     27  C   UNL     1       0.845   0.636  -0.058  1.00  0.00     0.017 C 
ATOM     28  C   UNL     1      -1.405   0.230  -1.065  1.00  0.00     0.017 C 
ENDBRANCH  15  26
ENDBRANCH  13  14
ENDBRANCH   1  13
BRANCH   2  29
ATOM     29  C   UNL     1      -3.059   1.911   7.273  1.00  0.00     0.005 C 
BRANCH  29  30
ATOM     30  C   UNL     1      -3.297   1.173   5.976  1.00  0.00     0.009 CG0
ATOM     31  G   UNL     1      -3.108   2.071   4.766  1.00  0.00     0.000 G0
ENDBRANCH  29  30
ENDBRANCH   2  29
BRANCH   6  32
ATOM     32  C   UNL     1      -5.851   4.792  11.874  1.00  0.00     0.185 C 
ATOM     33  C   UNL     1      -6.645   6.022  11.429  1.00  0.00     0.075 C 
BRANCH  32  34
ATOM     34  N   UNL     1      -5.456   4.946  13.287  1.00  0.00    -0.346 N 
ATOM     35  C   UNL     1      -6.543   4.491  14.175  1.00  0.00     0.331 C 
ATOM     36  H   UNL     1      -5.251   5.936  13.479  1.00  0.00     0.346 HD
ATOM     37  H   UNL     1      -4.612   4.385  13.469  1.00  0.00     0.346 HD
ENDBRANCH  32  34
ENDBRANCH   6  32
BRANCH   5  38
ATOM     38  O   UNL     1      -2.462   3.890  11.918  1.00  0.00    -0.393 OA
ATOM     39  H   UNL     1      -2.018   4.377  11.179  1.00  0.00     0.210 HD
ENDBRANCH   5  38
TORSDOF 4
