REMARK SMILES C=CCNC(=O)c1ccccc1N1C(=O)[C@H]2Cc3c([nH]c4ccccc34)[C@@H](c3ccc(C(C)C)cc3)N2C1=O
REMARK SMILES IDX 12 1 11 2 10 3 9 4 8 5 7 6 13 7 27 8 37 9 19 10 16 11 38 12
REMARK SMILES IDX 20 13 18 14 17 15 14 16 39 17 21 18 26 20 15 21 22 22 25 23
REMARK SMILES IDX 23 24 24 25 28 26 31 27 35 28 30 29 36 30 29 31 32 32 33 33
REMARK SMILES IDX 34 34 5 35 6 36 4 37 3 39 2 40 1 41
REMARK H PARENT 20 19 4 38
REMARK Flexibility Score: inf
ROOT
ATOM      1  C   UNL     1       1.230  -0.680  -0.013  1.00  0.00     0.066 A 
ATOM      2  C   UNL     1       2.414   0.044  -0.021  1.00  0.00     0.028 A 
ATOM      3  C   UNL     1       2.380   1.425  -0.013  1.00  0.00     0.002 A 
ATOM      4  C   UNL     1       1.168   2.096   0.002  1.00  0.00     0.001 A 
ATOM      5  C   UNL     1      -0.017   1.392   0.010  1.00  0.00     0.016 A 
ATOM      6  C   UNL     1       0.002  -0.004   0.002  1.00  0.00     0.064 A 
ENDROOT
BRANCH   1   7
ATOM      7  N   UNL     1       1.262  -2.076  -0.021  1.00  0.00    -0.229 N 
ATOM      8  C   UNL     1       1.204  -5.274  -1.781  1.00  0.00     0.165 C 
ATOM      9  N   UNL     1       1.274  -4.130  -0.863  1.00  0.00    -0.299 N 
ATOM     10  C   UNL     1       0.282  -6.286  -1.130  1.00  0.00     0.047 A 
ATOM     11  C   UNL     1       1.343  -4.274   0.608  1.00  0.00     0.182 C 
ATOM     12  C   UNL     1       1.263  -2.824  -1.134  1.00  0.00     0.332 C 
ATOM     13  N   UNL     1      -0.189  -7.437  -1.702  1.00  0.00    -0.356 N 
ATOM     14  C   UNL     1      -0.194  -6.163   0.127  1.00  0.00    -0.014 A 
ATOM     15  C   UNL     1       0.085  -5.019   1.070  1.00  0.00     0.073 C 
ATOM     16  C   UNL     1       1.291  -2.839   1.091  1.00  0.00     0.258 C 
ATOM     17  O   UNL     1       1.258  -2.364  -2.259  1.00  0.00    -0.247 OA
ATOM     18  C   UNL     1      -0.987  -8.099  -0.815  1.00  0.00     0.046 A 
ATOM     19  H   UNL     1       0.027  -7.755  -2.658  1.00  0.00     0.166 HD
ATOM     20  C   UNL     1      -1.023  -7.328   0.375  1.00  0.00     0.003 A 
ATOM     21  O   UNL     1       1.277  -2.455   2.241  1.00  0.00    -0.272 OA
ATOM     22  C   UNL     1      -1.694  -9.296  -0.906  1.00  0.00     0.026 A 
ATOM     23  C   UNL     1      -1.763  -7.743   1.487  1.00  0.00     0.010 A 
ATOM     24  C   UNL     1      -2.418  -9.683   0.209  1.00  0.00     0.002 A 
ATOM     25  C   UNL     1      -2.448  -8.927   1.369  1.00  0.00     0.001 A 
BRANCH   8  26
ATOM     26  C   UNL     1       0.639  -4.838  -3.109  1.00  0.00    -0.019 A 
ATOM     27  C   UNL     1      -0.397  -4.040  -5.544  1.00  0.00    -0.045 A 
ATOM     28  C   UNL     1      -0.928  -3.541  -4.370  1.00  0.00     0.004 A 
ATOM     29  C   UNL     1       0.652  -4.939  -5.501  1.00  0.00     0.004 A 
ATOM     30  C   UNL     1      -0.413  -3.943  -3.152  1.00  0.00     0.006 A 
ATOM     31  C   UNL     1       1.170  -5.338  -4.283  1.00  0.00     0.006 A 
BRANCH  27  32
ATOM     32  C   UNL     1      -0.961  -3.604  -6.872  1.00  0.00     0.013 C 
ATOM     33  C   UNL     1      -2.442  -3.982  -6.946  1.00  0.00     0.012 C 
ATOM     34  C   UNL     1      -0.815  -2.087  -7.015  1.00  0.00     0.012 C 
ENDBRANCH  27  32
ENDBRANCH   8  26
ENDBRANCH   1   7
BRANCH   6  35
ATOM     35  C   UNL     1      -1.263  -0.763   0.011  1.00  0.00     0.253 C 
ATOM     36  O   UNL     1      -1.243  -1.979   0.004  1.00  0.00    -0.269 OA
ATOM     37  N   UNL     1      -2.442  -0.110   0.026  1.00  0.00    -0.349 N 
ATOM     38  H   UNL     1      -2.459   0.920   0.031  1.00  0.00     0.164 HD
BRANCH  37  39
ATOM     39  C   UNL     1      -3.698  -0.864   0.034  1.00  0.00     0.143 C 
BRANCH  39  40
ATOM     40  C   UNL     1      -4.859   0.096   0.051  1.00  0.00    -0.014 C 
ATOM     41  C   UNL     1      -5.788   0.017  -0.870  1.00  0.00     0.006 C 
ENDBRANCH  39  40
ENDBRANCH  37  39
ENDBRANCH   6  35
TORSDOF 6
