REMARK SMILES CCOC(=O)c1c(NC(=O)CSc2nnc(-c3cc4ccccc4o3)n2CC)sc(C)c1C
REMARK SMILES IDX 9 1 10 2 8 3 11 5 12 6 13 7 26 8 16 9 14 10 15 11 27 12
REMARK SMILES IDX 28 13 17 14 25 15 18 16 24 17 19 18 23 19 20 20 22 21 21 22
REMARK SMILES IDX 7 23 29 24 6 25 30 26 32 27 31 28 33 29 4 30 5 31 3 32 2 33
REMARK SMILES IDX 1 34
REMARK H PARENT 8 4
REMARK Flexibility Score: inf
ROOT
ATOM      1  C   UNL     1      -4.398  -2.062   2.671  1.00  0.00     0.235 C 
ATOM      2  O   UNL     1      -4.143  -2.813   1.753  1.00  0.00    -0.274 OA
ATOM      3  N   UNL     1      -5.361  -2.384   3.557  1.00  0.00    -0.316 N 
ATOM      4  H   UNL     1      -5.577  -1.746   4.337  1.00  0.00     0.170 HD
ENDROOT
BRANCH   1   5
ATOM      5  C   UNL     1      -3.638  -0.769   2.819  1.00  0.00     0.178 C 
BRANCH   5   6
ATOM      6  S   UNL     1      -2.423  -0.627   1.486  1.00  0.00    -0.076 SA
BRANCH   6   7
ATOM      7  C   UNL     1      -1.701   0.927   1.894  1.00  0.00     0.192 A 
ATOM      8  N   UNL     1      -0.698   1.558   1.213  1.00  0.00    -0.300 N 
ATOM      9  C   UNL     1      -0.463   2.729   1.901  1.00  0.00     0.200 A 
ATOM     10  N   UNL     1      -2.026   1.695   2.910  1.00  0.00    -0.123 NA
ATOM     11  N   UNL     1      -1.301   2.756   2.913  1.00  0.00    -0.126 NA
BRANCH   8  12
ATOM     12  C   UNL     1      -0.013   1.086   0.008  1.00  0.00     0.123 C 
ATOM     13  C   UNL     1      -0.753   1.593  -1.232  1.00  0.00     0.028 C 
ENDBRANCH   8  12
BRANCH   9  14
ATOM     14  C   UNL     1       0.535   3.756   1.563  1.00  0.00     0.172 A 
ATOM     15  O   UNL     1       1.562   3.587   0.706  1.00  0.00    -0.453 OA
ATOM     16  C   UNL     1       0.558   5.018   2.064  1.00  0.00     0.063 A 
ATOM     17  C   UNL     1       2.299   4.713   0.611  1.00  0.00     0.134 A 
ATOM     18  C   UNL     1       1.717   5.674   1.457  1.00  0.00     0.021 A 
ATOM     19  C   UNL     1       3.432   5.050  -0.118  1.00  0.00     0.048 A 
ATOM     20  C   UNL     1       2.277   6.949   1.559  1.00  0.00     0.012 A 
ATOM     21  C   UNL     1       3.971   6.314  -0.004  1.00  0.00     0.004 A 
ATOM     22  C   UNL     1       3.394   7.258   0.833  1.00  0.00     0.001 A 
ENDBRANCH   9  14
ENDBRANCH   6   7
ENDBRANCH   5   6
ENDBRANCH   1   5
BRANCH   3  23
ATOM     23  C   UNL     1      -6.060  -3.572   3.421  1.00  0.00     0.110 A 
ATOM     24  S   UNL     1      -5.884  -4.790   2.202  1.00  0.00    -0.122 S 
ATOM     25  C   UNL     1      -7.078  -4.074   4.225  1.00  0.00     0.098 A 
ATOM     26  C   UNL     1      -7.123  -5.944   2.753  1.00  0.00     0.007 A 
ATOM     27  C   UNL     1      -7.634  -5.351   3.846  1.00  0.00    -0.021 A 
ATOM     28  C   UNL     1      -7.511  -7.263   2.137  1.00  0.00     0.057 C 
ATOM     29  C   UNL     1      -8.741  -5.993   4.643  1.00  0.00     0.046 C 
BRANCH  25  30
ATOM     30  C   UNL     1      -7.560  -3.343   5.399  1.00  0.00     0.341 C 
ATOM     31  O   UNL     1      -8.476  -2.550   5.287  1.00  0.00    -0.246 OA
BRANCH  30  32
ATOM     32  O   UNL     1      -6.989  -3.549   6.603  1.00  0.00    -0.462 OA
BRANCH  32  33
ATOM     33  C   UNL     1      -7.519  -2.790   7.722  1.00  0.00     0.230 C 
ATOM     34  C   UNL     1      -6.752  -3.155   8.995  1.00  0.00     0.049 C 
ENDBRANCH  32  33
ENDBRANCH  30  32
ENDBRANCH  25  30
ENDBRANCH   3  23
TORSDOF 9
