REMARK SMILES Cc1ccc(C)c(N2CC[NH+](CCCNC(=O)c3cnn(-c4ccc(Cl)cc4)c3C3CC[NH2+]CC3)CC2)c1
REMARK SMILES IDX 13 1 12 2 11 3 8 4 37 5 9 6 36 7 10 8 7 10 1 11 2 12 38 13
REMARK SMILES IDX 3 14 4 15 5 16 6 17 14 18 15 19 16 20 17 22 18 23 29 24
REMARK SMILES IDX 19 25 21 26 20 27 30 28 35 29 31 30 34 31 32 32 33 33 22 36
REMARK SMILES IDX 28 37 23 38 27 39 24 40 25 41 26 42
REMARK H PARENT 11 9 15 21 33 34 33 35
REMARK Flexibility Score: inf
ROOT
ATOM      1  C   UNL     1      -0.912  -5.080   2.811  1.00  0.00     0.083 C 
ENDROOT
BRANCH   1   2
ATOM      2  C   UNL     1      -1.599  -6.256   2.112  1.00  0.00     0.264 C 
BRANCH   2   3
ATOM      3  N   UNL     1      -1.314  -7.494   2.868  1.00  0.00    -0.332 N 
ATOM      4  N   UNL     1      -0.430 -10.193   3.099  1.00  0.00    -0.360 N 
ATOM      5  C   UNL     1       0.397  -9.085   3.595  1.00  0.00     0.178 C 
ATOM      6  C   UNL     1      -1.859  -9.858   3.181  1.00  0.00     0.178 C 
ATOM      7  C   UNL     1       0.121  -7.832   2.759  1.00  0.00     0.283 C 
ATOM      8  C   UNL     1      -2.135  -8.606   2.345  1.00  0.00     0.283 C 
ATOM      9  H   UNL     1      -1.548  -7.341   3.860  1.00  0.00     0.348 HD
BRANCH   4  10
ATOM     10  C   UNL     1      -0.152 -11.374   3.792  1.00  0.00     0.040 A 
ATOM     11  C   UNL     1      -0.425 -12.724   7.312  1.00  0.00     0.044 C 
ATOM     12  C   UNL     1      -0.140 -12.629   5.835  1.00  0.00    -0.049 A 
ATOM     13  C   UNL     1      -0.415 -11.460   5.153  1.00  0.00     0.029 A 
ATOM     14  C   UNL     1       0.396 -13.713   5.164  1.00  0.00     0.004 A 
ATOM     15  C   UNL     1       0.659 -13.630   3.809  1.00  0.00     0.006 A 
ATOM     16  C   UNL     1       0.382 -12.466   3.120  1.00  0.00    -0.028 A 
ATOM     17  C   UNL     1       0.662 -12.379   1.642  1.00  0.00     0.046 C 
ENDBRANCH   4  10
ENDBRANCH   2   3
ENDBRANCH   1   2
BRANCH   1  18
ATOM     18  C   UNL     1      -1.217  -3.787   2.052  1.00  0.00     0.122 C 
BRANCH  18  19
ATOM     19  N   UNL     1      -0.559  -2.662   2.721  1.00  0.00    -0.352 N 
ATOM     20  C   UNL     1      -0.688  -1.415   2.226  1.00  0.00     0.254 C 
ATOM     21  H   UNL     1       0.002  -2.824   3.569  1.00  0.00     0.163 HD
ATOM     22  O   UNL     1      -1.350  -1.224   1.224  1.00  0.00    -0.269 OA
BRANCH  20  23
ATOM     23  C   UNL     1      -0.026  -0.283   2.899  1.00  0.00     0.081 A 
ATOM     24  C   UNL     1      -0.149   1.052   2.569  1.00  0.00     0.061 A 
ATOM     25  C   UNL     1       0.853  -0.361   4.003  1.00  0.00     0.149 A 
ATOM     26  N   UNL     1       0.620   1.750   3.425  1.00  0.00    -0.237 N 
ATOM     27  N   UNL     1       1.228   0.851   4.308  1.00  0.00    -0.175 NA
BRANCH  24  28
ATOM     28  C   UNL     1      -0.985   1.622   1.452  1.00  0.00     0.050 C 
ATOM     29  C   UNL     1      -2.444   1.193   1.634  1.00  0.00     0.071 C 
ATOM     30  C   UNL     1      -0.471   1.097   0.109  1.00  0.00     0.071 C 
ATOM     31  C   UNL     1      -3.276   1.724   0.464  1.00  0.00     0.261 C 
ATOM     32  C   UNL     1      -1.360   1.630  -1.017  1.00  0.00     0.261 C 
ATOM     33  N   UNL     1      -2.751   1.185  -0.805  1.00  0.00    -0.346 N 
ATOM     34  H   UNL     1      -3.337   1.516  -1.585  1.00  0.00     0.346 HD
ATOM     35  H   UNL     1      -2.780   0.156  -0.776  1.00  0.00     0.346 HD
ENDBRANCH  24  28
BRANCH  26  36
ATOM     36  C   UNL     1       0.783   3.142   3.431  1.00  0.00     0.065 A 
ATOM     37  C   UNL     1       0.898   3.823   4.636  1.00  0.00     0.030 A 
ATOM     38  C   UNL     1       0.834   3.842   2.233  1.00  0.00     0.030 A 
ATOM     39  C   UNL     1       1.059   5.195   4.640  1.00  0.00     0.023 A 
ATOM     40  C   UNL     1       0.990   5.214   2.243  1.00  0.00     0.023 A 
ATOM     41  C   UNL     1       1.105   5.891   3.444  1.00  0.00     0.041 A 
ATOM     42  Cl  UNL     1       1.308   7.615   3.453  1.00  0.00    -0.084 Cl
ENDBRANCH  26  36
ENDBRANCH  20  23
ENDBRANCH  18  19
ENDBRANCH   1  18
TORSDOF 8
