REMARK SMILES C/C(=N\NC(=O)c1nnn(-c2nonc2N)c1C)c1ccc(Cl)cc1Cl
REMARK SMILES IDX 18 1 17 2 7 3 8 4 9 5 10 6 11 7 12 8 15 9 13 10 14 11 16 12
REMARK SMILES IDX 5 15 6 16 4 17 3 19 2 20 1 21 19 22 25 23 20 24 24 25 26 26
REMARK SMILES IDX 21 27 22 28 23 29
REMARK H PARENT 16 13 16 14 4 18
REMARK Flexibility Score: inf
ROOT
ATOM      1  C   UNL     1      -1.792   6.161   0.049  1.00  0.00     0.069 C 
ATOM      2  C   UNL     1      -0.497   5.389   0.046  1.00  0.00     0.077 A 
ATOM      3  C   UNL     1       0.764   5.914   0.054  1.00  0.00     0.175 A 
ATOM      4  N   UNL     1       1.647   4.901   0.042  1.00  0.00    -0.124 NA
ATOM      5  N   UNL     1       1.016   3.778   0.032  1.00  0.00    -0.060 NA
ATOM      6  N   UNL     1      -0.360   4.045   0.038  1.00  0.00    -0.192 N 
ENDROOT
BRANCH   6   7
ATOM      7  C   UNL     1      -1.393   3.100   0.031  1.00  0.00     0.243 A 
ATOM      8  N   UNL     1      -2.669   3.366   0.033  1.00  0.00    -0.027 NA
ATOM      9  C   UNL     1      -1.224   1.645   0.017  1.00  0.00     0.215 A 
ATOM     10  O   UNL     1      -3.369   2.134   0.030  1.00  0.00    -0.240 OA
ATOM     11  N   UNL     1      -2.408   1.094   0.020  1.00  0.00    -0.030 NA
BRANCH   9  12
ATOM     12  N   UNL     1      -0.011   0.966   0.007  1.00  0.00    -0.378 N 
ATOM     13  H   UNL     1       0.831   1.558   0.011  1.00  0.00     0.158 HD
ATOM     14  H   UNL     1       0.059  -0.062  -0.003  1.00  0.00     0.158 HD
ENDBRANCH   9  12
ENDBRANCH   6   7
BRANCH   3  15
ATOM     15  C   UNL     1       1.100   7.350   0.067  1.00  0.00     0.293 C 
ATOM     16  O   UNL     1       0.213   8.182   0.077  1.00  0.00    -0.265 OA
ATOM     17  N   UNL     1       2.390   7.740   0.067  1.00  0.00    -0.241 N 
ATOM     18  H   UNL     1       3.141   7.036   0.058  1.00  0.00     0.194 HD
BRANCH  17  19
ATOM     19  N   UNL     1       2.709   9.105   0.079  1.00  0.00    -0.177 NA
ATOM     20  C   UNL     1       3.951   9.480   0.079  1.00  0.00     0.066 C 
ATOM     21  C   UNL     1       5.050   8.450   0.067  1.00  0.00     0.069 C 
BRANCH  20  22
ATOM     22  C   UNL     1       4.287  10.916   0.092  1.00  0.00     0.016 A 
ATOM     23  C   UNL     1       3.270  11.875   0.104  1.00  0.00     0.051 A 
ATOM     24  C   UNL     1       5.623  11.324   0.098  1.00  0.00     0.013 A 
ATOM     25  C   UNL     1       3.592  13.217   0.116  1.00  0.00     0.041 A 
ATOM     26  Cl  UNL     1       1.606  11.379   0.104  1.00  0.00    -0.084 Cl
ATOM     27  C   UNL     1       5.931  12.668   0.105  1.00  0.00     0.021 A 
ATOM     28  C   UNL     1       4.918  13.614   0.117  1.00  0.00     0.042 A 
ATOM     29  Cl  UNL     1       5.315  15.304   0.133  1.00  0.00    -0.084 Cl
ENDBRANCH  20  22
ENDBRANCH  17  19
ENDBRANCH   3  15
TORSDOF 5
