REMARK SMILES Cc1cccc(-n2c(O)c3ccc(C(=O)NNC(=O)Cc4ccc(Cl)cc4)cc3nc2=S)c1C
REMARK SMILES IDX 14 1 15 2 16 3 13 5 7 6 31 7 8 8 30 9 32 10 10 11 29 12
REMARK SMILES IDX 11 13 28 14 12 15 6 16 1 17 2 18 33 19 3 20 34 21 4 22 5 23
REMARK SMILES IDX 9 24 17 26 18 27 19 29 20 30 21 31 27 32 22 33 26 34 23 35
REMARK SMILES IDX 24 36 25 37
REMARK H PARENT 16 4 9 25 17 28
REMARK Flexibility Score: inf
ROOT
ATOM      1  C   UNL     1      -0.513   1.424  -4.808  1.00  0.00     0.269 C 
ATOM      2  O   UNL     1       0.483   0.739  -4.933  1.00  0.00    -0.267 OA
ATOM      3  N   UNL     1      -0.966   1.736  -3.578  1.00  0.00    -0.263 N 
ATOM      4  H   UNL     1      -1.811   2.317  -3.472  1.00  0.00     0.191 HD
ENDROOT
BRANCH   1   5
ATOM      5  C   UNL     1      -1.229   1.914  -6.008  1.00  0.00     0.043 A 
ATOM      6  N   UNL     1      -2.779   2.970 -10.639  1.00  0.00    -0.255 N 
ATOM      7  C   UNL     1      -1.653   2.197 -10.712  1.00  0.00     0.207 A 
ATOM      8  C   UNL     1      -3.292   3.324  -9.438  1.00  0.00     0.207 A 
ATOM      9  N   UNL     1      -1.016   1.762  -9.653  1.00  0.00    -0.219 NA
ATOM     10  S   UNL     1      -1.030   1.767 -12.303  1.00  0.00    -0.038 S 
ATOM     11  C   UNL     1      -2.596   2.849  -8.232  1.00  0.00     0.061 A 
ATOM     12  C   UNL     1      -1.439   2.055  -8.401  1.00  0.00     0.080 A 
ATOM     13  C   UNL     1      -3.051   3.164  -6.952  1.00  0.00     0.017 A 
ATOM     14  C   UNL     1      -0.758   1.589  -7.273  1.00  0.00     0.043 A 
ATOM     15  C   UNL     1      -2.380   2.698  -5.858  1.00  0.00     0.015 A 
BRANCH   6  16
ATOM     16  C   UNL     1      -3.405   3.398 -11.816  1.00  0.00     0.055 A 
ATOM     17  C   UNL     1      -3.257   6.327 -14.200  1.00  0.00     0.044 C 
ATOM     18  C   UNL     1      -3.657   5.021 -13.563  1.00  0.00    -0.046 A 
ATOM     19  C   UNL     1      -3.041   4.604 -12.399  1.00  0.00    -0.024 A 
ATOM     20  C   UNL     1      -4.644   4.244 -14.141  1.00  0.00     0.004 A 
ATOM     21  C   UNL     1      -1.970   5.455 -11.766  1.00  0.00     0.047 C 
ATOM     22  C   UNL     1      -5.013   3.045 -13.560  1.00  0.00     0.002 A 
ATOM     23  C   UNL     1      -4.396   2.620 -12.399  1.00  0.00     0.027 A 
ENDBRANCH   6  16
BRANCH   8  24
ATOM     24  O   UNL     1      -4.294   4.011  -9.358  1.00  0.00    -0.494 OA
ATOM     25  H   UNL     1      -4.974   3.513  -9.877  1.00  0.00     0.295 HD
ENDBRANCH   8  24
ENDBRANCH   1   5
BRANCH   3  26
ATOM     26  N   UNL     1      -0.288   1.272  -2.443  1.00  0.00    -0.267 N 
ATOM     27  C   UNL     1      -0.742   1.585  -1.213  1.00  0.00     0.242 C 
ATOM     28  H   UNL     1       0.556   0.692  -2.549  1.00  0.00     0.191 HD
ATOM     29  O   UNL     1      -1.736   2.268  -1.088  1.00  0.00    -0.273 OA
BRANCH  27  30
ATOM     30  C   UNL     1      -0.013   1.086   0.008  1.00  0.00     0.137 C 
BRANCH  30  31
ATOM     31  C   UNL     1      -0.718   1.572   1.248  1.00  0.00    -0.039 A 
ATOM     32  C   UNL     1      -1.719   0.808   1.817  1.00  0.00     0.006 A 
ATOM     33  C   UNL     1      -0.360   2.779   1.818  1.00  0.00     0.006 A 
ATOM     34  C   UNL     1      -2.367   1.253   2.955  1.00  0.00     0.021 A 
ATOM     35  C   UNL     1      -1.010   3.228   2.952  1.00  0.00     0.021 A 
ATOM     36  C   UNL     1      -2.012   2.464   3.523  1.00  0.00     0.041 A 
ATOM     37  Cl  UNL     1      -2.825   3.024   4.951  1.00  0.00    -0.084 Cl
ENDBRANCH  30  31
ENDBRANCH  27  30
ENDBRANCH   3  26
TORSDOF 6
