REMARK SMILES Cc1[nH]c(S[C@@H](C)C(=O)NC(=O)N[C@]23C[C@H]4C[C@H](C[C@H](C4)C2)C3)nc1Cc1ccccc1
REMARK SMILES IDX 5 1 4 2 1 3 2 4 3 5 25 6 24 8 26 9 27 10 32 11 28 12 31 13
REMARK SMILES IDX 29 14 30 15 6 16 7 17 8 18 9 19 10 20 11 21 12 23 13 24
REMARK SMILES IDX 14 26 15 27 22 28 23 29 16 30 20 31 18 32 17 33 21 34 19 35
REMARK H PARENT 3 7 10 22 13 25
REMARK Flexibility Score: inf
ROOT
ATOM      1  S   UNL     1       4.743   3.265  -4.689  1.00  0.00    -0.075 SA
ENDROOT
BRANCH   1   2
ATOM      2  C   UNL     1       3.804   3.945  -3.362  1.00  0.00     0.166 A 
ATOM      3  C   UNL     1       1.668   6.428  -1.712  1.00  0.00     0.066 C 
ATOM      4  C   UNL     1       2.530   5.275  -2.157  1.00  0.00     0.036 A 
ATOM      5  N   UNL     1       3.120   5.121  -3.392  1.00  0.00    -0.337 N 
ATOM      6  C   UNL     1       2.869   4.201  -1.424  1.00  0.00     0.067 A 
ATOM      7  H   UNL     1       3.056   5.773  -4.187  1.00  0.00     0.168 HD
ATOM      8  N   UNL     1       3.650   3.406  -2.175  1.00  0.00    -0.227 NA
BRANCH   6   9
ATOM      9  C   UNL     1       2.451   3.937  -0.001  1.00  0.00     0.093 C 
BRANCH   9  10
ATOM     10  C   UNL     1       1.156   3.165   0.008  1.00  0.00    -0.042 A 
ATOM     11  C   UNL     1      -0.050   3.840   0.023  1.00  0.00     0.004 A 
ATOM     12  C   UNL     1       1.175   1.783   0.000  1.00  0.00     0.004 A 
ATOM     13  C   UNL     1      -1.238   3.133   0.030  1.00  0.00     0.000 A 
ATOM     14  C   UNL     1      -0.013   1.076   0.008  1.00  0.00     0.000 A 
ATOM     15  C   UNL     1      -1.219   1.751   0.017  1.00  0.00     0.000 A 
ENDBRANCH   9  10
ENDBRANCH   6   9
ENDBRANCH   1   2
BRANCH   1  16
ATOM     16  C   UNL     1       5.330   1.740  -3.909  1.00  0.00     0.141 C 
ATOM     17  C   UNL     1       4.138   0.830  -3.607  1.00  0.00     0.030 C 
BRANCH  16  18
ATOM     18  C   UNL     1       6.279   1.032  -4.842  1.00  0.00     0.241 C 
ATOM     19  O   UNL     1       6.265   1.285  -6.027  1.00  0.00    -0.273 OA
ATOM     20  N   UNL     1       7.143   0.118  -4.358  1.00  0.00    -0.277 N 
ATOM     21  C   UNL     1       7.991  -0.515  -5.192  1.00  0.00     0.321 C 
ATOM     22  H   UNL     1       7.154  -0.097  -3.351  1.00  0.00     0.174 HD
ATOM     23  O   UNL     1       7.977  -0.262  -6.381  1.00  0.00    -0.248 OA
ATOM     24  N   UNL     1       8.855  -1.430  -4.708  1.00  0.00    -0.332 N 
ATOM     25  H   UNL     1       8.866  -1.645  -3.701  1.00  0.00     0.165 HD
BRANCH  24  26
ATOM     26  C   UNL     1       9.777  -2.118  -5.615  1.00  0.00     0.043 C 
ATOM     27  C   UNL     1      10.641  -3.097  -4.817  1.00  0.00     0.032 C 
ATOM     28  C   UNL     1      10.675  -1.090  -6.306  1.00  0.00     0.032 C 
ATOM     29  C   UNL     1       8.977  -2.887  -6.669  1.00  0.00     0.032 C 
ATOM     30  C   UNL     1      11.604  -3.816  -5.764  1.00  0.00    -0.008 C 
ATOM     31  C   UNL     1      11.638  -1.809  -7.253  1.00  0.00    -0.008 C 
ATOM     32  C   UNL     1       9.940  -3.606  -7.616  1.00  0.00    -0.008 C 
ATOM     33  C   UNL     1      10.804  -4.584  -6.818  1.00  0.00     0.007 C 
ATOM     34  C   UNL     1      12.502  -2.788  -6.455  1.00  0.00     0.007 C 
ATOM     35  C   UNL     1      10.838  -2.578  -8.307  1.00  0.00     0.007 C 
ENDBRANCH  24  26
ENDBRANCH  16  18
ENDBRANCH   1  16
TORSDOF 6
