REMARK SMILES [NH3+][C@@H](CS)CN1CCN(C(=O)[C@@H]2c3ccc(Cl)cc3CCc3cc(Br)cnc32)CC1
REMARK SMILES IDX 10 1 11 2 9 3 8 4 7 5 6 6 30 7 29 8 12 9 13 10 15 11 16 12
REMARK SMILES IDX 14 13 18 14 17 15 19 16 20 17 28 19 22 20 27 21 23 22 26 23
REMARK SMILES IDX 24 24 25 25 21 26 5 28 2 29 3 30 4 31 1 33
REMARK H PARENT 4 32 1 34 1 35 1 36
REMARK Flexibility Score: 90.00
ROOT
ATOM      1  C   UNL     1      -0.665   3.983   7.063  1.00  0.00     0.236 C 
ATOM      2  O   UNL     1      -0.517   3.489   8.160  1.00  0.00    -0.274 OA
ATOM      3  N   UNL     1      -0.837   3.193   5.985  1.00  0.00    -0.339 N 
ATOM      4  C   UNL     1      -0.734   1.730   6.098  1.00  0.00     0.135 C 
ATOM      5  C   UNL     1       0.236   1.226   5.024  1.00  0.00     0.106 C 
ATOM      6  N   UNL     1      -0.195   1.718   3.709  1.00  0.00    -0.294 NA
ATOM      7  C   UNL     1      -0.145   3.185   3.647  1.00  0.00     0.106 C 
ATOM      8  C   UNL     1      -1.131   3.769   4.665  1.00  0.00     0.135 C 
ENDROOT
BRANCH   1   9
ATOM      9  C   UNL     1      -0.658   5.482   6.904  1.00  0.00     0.158 C 
BRANCH   9  10
ATOM     10  C   UNL     1       0.444   5.984   7.754  1.00  0.00    -0.026 A 
ATOM     11  C   UNL     1       2.860   5.865   7.981  1.00  0.00     0.021 A 
ATOM     12  C   UNL     1       2.785   6.787   9.010  1.00  0.00     0.041 A 
ATOM     13  C   UNL     1       1.700   5.476   7.360  1.00  0.00     0.007 A 
ATOM     14  C   UNL     1       1.556   7.255   9.399  1.00  0.00     0.024 A 
ATOM     15  Cl  UNL     1       4.228   7.343   9.800  1.00  0.00    -0.084 Cl
ATOM     16  C   UNL     1       0.359   6.820   8.783  1.00  0.00    -0.042 A 
BRANCH  16  17
ATOM     17  C   UNL     1      -0.824   7.388   9.536  1.00  0.00     0.041 CG0
ATOM     18  G   UNL     1      -1.930   7.905   8.670  1.00  0.00     0.000 G0
ENDBRANCH  16  17
ENDBRANCH   9  10
BRANCH   9  19
ATOM     19  C   UNL     1      -2.066   5.917   7.005  1.00  0.00     0.061 A 
ATOM     20  C   UNL     1      -2.579   6.866   7.781  1.00  0.00    -0.024 A 
ATOM     21  N   UNL     1      -2.874   5.198   6.196  1.00  0.00    -0.259 NA
ATOM     22  C   UNL     1      -3.988   7.009   7.822  1.00  0.00     0.023 A 
ATOM     23  C   UNL     1      -4.175   5.320   6.174  1.00  0.00     0.127 A 
ATOM     24  C   UNL     1      -4.788   6.227   7.021  1.00  0.00     0.036 A 
ATOM     25  Br  UNL     1      -6.671   6.388   7.075  1.00  0.00    -0.049 Br
BRANCH  20  26
ATOM     26  C   UNL     1      -1.930   7.905   8.670  1.00  0.00     0.042 CG0
ATOM     27  G   UNL     1      -0.824   7.388   9.536  1.00  0.00     0.000 G0
ENDBRANCH  20  26
ENDBRANCH   9  19
ENDBRANCH   1   9
BRANCH   6  28
ATOM     28  C   UNL     1       0.607   1.119   2.634  1.00  0.00     0.150 C 
BRANCH  28  29
ATOM     29  C   UNL     1       0.157  -0.326   2.408  1.00  0.00     0.204 C 
BRANCH  29  30
ATOM     30  C   UNL     1       0.914  -0.916   1.216  1.00  0.00     0.132 C 
BRANCH  30  31
ATOM     31  S   UNL     1       0.381  -2.629   0.949  1.00  0.00    -0.173 SA
ATOM     32  H   UNL     1      -0.964  -2.655   0.692  1.00  0.00     0.102 HD
ENDBRANCH  30  31
ENDBRANCH  29  30
BRANCH  29  33
ATOM     33  N   UNL     1      -1.286  -0.353   2.133  1.00  0.00    -0.353 N 
ATOM     34  H   UNL     1      -1.486   0.204   1.290  1.00  0.00     0.344 HD
ATOM     35  H   UNL     1      -1.796   0.043   2.935  1.00  0.00     0.344 HD
ATOM     36  H   UNL     1      -1.589  -1.326   1.981  1.00  0.00     0.344 HD
ENDBRANCH  29  33
ENDBRANCH  28  29
ENDBRANCH   6  28
TORSDOF 6
