REMARK SMILES Cc1ccc(S(=O)(=O)N(CC(C)C)[C@H](C[NH3+])CCCCNC(=O)OCC2c3ccccc3-c3ccccc32)cc1
REMARK SMILES IDX 18 1 17 2 14 3 9 4 6 5 7 6 8 7 5 8 1 9 2 10 40 11 3 12 39 13
REMARK SMILES IDX 4 14 10 15 11 16 12 17 13 18 15 19 16 20 19 24 20 25 21 26
REMARK SMILES IDX 22 27 23 29 24 30 25 31 26 32 38 33 27 34 33 35 37 36 32 37
REMARK SMILES IDX 28 38 34 39 36 40 31 41 29 42 35 43 30 44
REMARK H PARENT 16 21 16 22 16 23 21 28
REMARK Flexibility Score: inf
ROOT
ATOM      1  C   UNL     1      -6.740   8.005   3.670  1.00  0.00     0.004 C 
ENDROOT
BRANCH   1   2
ATOM      2  C   UNL     1      -8.269   8.045   3.642  1.00  0.00     0.026 C 
BRANCH   2   3
ATOM      3  C   UNL     1      -8.787   8.670   4.939  1.00  0.00     0.128 C 
BRANCH   3   4
ATOM      4  N   UNL     1      -8.458   7.795   6.067  1.00  0.00    -0.189 NA
BRANCH   4   5
ATOM      5  S   UNL     1      -7.427   8.322   7.251  1.00  0.00     0.243 S 
ATOM      6  O   UNL     1      -7.037   7.174   7.991  1.00  0.00    -0.207 OA
ATOM      7  O   UNL     1      -6.484   9.177   6.617  1.00  0.00    -0.207 OA
BRANCH   5   8
ATOM      8  C   UNL     1      -8.365   9.334   8.347  1.00  0.00     0.082 A 
ATOM      9  C   UNL     1     -10.639  11.785  11.005  1.00  0.00     0.044 C 
ATOM     10  C   UNL     1      -9.837  10.920  10.068  1.00  0.00    -0.051 A 
ATOM     11  C   UNL     1      -9.376  11.439   8.872  1.00  0.00     0.005 A 
ATOM     12  C   UNL     1      -9.562   9.608  10.403  1.00  0.00     0.005 A 
ATOM     13  C   UNL     1      -8.636  10.648   8.014  1.00  0.00     0.022 A 
ATOM     14  C   UNL     1      -8.825   8.814   9.543  1.00  0.00     0.022 A 
ENDBRANCH   5   8
ENDBRANCH   4   5
BRANCH   4  15
ATOM     15  C   UNL     1      -9.042   6.454   6.149  1.00  0.00     0.106 C 
BRANCH  15  16
ATOM     16  C   UNL     1     -10.475   6.552   6.676  1.00  0.00    -0.002 C 
ATOM     17  C   UNL     1     -11.140   5.177   6.604  1.00  0.00     0.009 C 
ATOM     18  C   UNL     1     -10.451   7.032   8.129  1.00  0.00     0.009 C 
ENDBRANCH  15  16
ENDBRANCH   4  15
ENDBRANCH   3   4
BRANCH   3  19
ATOM     19  C   UNL     1     -10.305   8.841   4.852  1.00  0.00     0.279 C 
BRANCH  19  20
ATOM     20  N   UNL     1     -10.811   9.309   6.155  1.00  0.00    -0.356 N 
ATOM     21  H   UNL     1     -10.377  10.213   6.392  1.00  0.00     0.344 HD
ATOM     22  H   UNL     1     -10.586   8.617   6.884  1.00  0.00     0.344 HD
ATOM     23  H   UNL     1     -11.832   9.426   6.101  1.00  0.00     0.344 HD
ENDBRANCH  19  20
ENDBRANCH   3  19
ENDBRANCH   2   3
ENDBRANCH   1   2
BRANCH   1  24
ATOM     24  C   UNL     1      -6.218   7.498   2.325  1.00  0.00     0.021 C 
BRANCH  24  25
ATOM     25  C   UNL     1      -4.690   7.572   2.310  1.00  0.00     0.119 C 
BRANCH  25  26
ATOM     26  N   UNL     1      -4.190   7.086   1.021  1.00  0.00    -0.321 N 
ATOM     27  C   UNL     1      -2.864   7.059   0.779  1.00  0.00     0.407 C 
ATOM     28  H   UNL     1      -4.851   6.764   0.300  1.00  0.00     0.167 HD
ATOM     29  O   UNL     1      -2.084   7.439   1.630  1.00  0.00    -0.225 OA
BRANCH  27  30
ATOM     30  O   UNL     1      -2.405   6.613  -0.405  1.00  0.00    -0.449 OA
BRANCH  30  31
ATOM     31  C   UNL     1      -0.966   6.612  -0.596  1.00  0.00     0.248 C 
BRANCH  31  32
ATOM     32  C   UNL     1      -0.636   6.075  -1.990  1.00  0.00     0.088 C 
ATOM     33  C   UNL     1       0.846   6.182  -2.252  1.00  0.00    -0.029 A 
ATOM     34  C   UNL     1      -0.969   4.606  -2.073  1.00  0.00    -0.029 A 
ATOM     35  C   UNL     1       1.328   4.894  -2.466  1.00  0.00    -0.014 A 
ATOM     36  C   UNL     1       1.701   7.262  -2.303  1.00  0.00     0.005 A 
ATOM     37  C   UNL     1       0.211   3.924  -2.356  1.00  0.00    -0.014 A 
ATOM     38  C   UNL     1      -2.153   3.915  -1.924  1.00  0.00     0.005 A 
ATOM     39  C   UNL     1       2.686   4.707  -2.733  1.00  0.00     0.009 A 
ATOM     40  C   UNL     1       3.046   7.070  -2.569  1.00  0.00     0.000 A 
ATOM     41  C   UNL     1       0.184   2.534  -2.487  1.00  0.00     0.009 A 
ATOM     42  C   UNL     1      -2.174   2.538  -2.060  1.00  0.00     0.000 A 
ATOM     43  C   UNL     1       3.534   5.793  -2.783  1.00  0.00     0.001 A 
ATOM     44  C   UNL     1      -1.005   1.851  -2.336  1.00  0.00     0.001 A 
ENDBRANCH  31  32
ENDBRANCH  30  31
ENDBRANCH  27  30
ENDBRANCH  25  26
ENDBRANCH  24  25
ENDBRANCH   1  24
TORSDOF 15
