REMARK SMILES CC(=O)NCc1ccc(-c2csc(NC(=O)[C@@H](NC(=O)c3ccc(C(C)(C)C)cc3)C(C)C)n2)o1
REMARK SMILES IDX 15 1 16 2 14 3 17 5 31 6 32 7 33 8 18 9 19 10 20 12 21 13
REMARK SMILES IDX 30 14 22 15 29 16 23 17 24 18 25 19 26 20 27 21 28 22 13 23
REMARK SMILES IDX 12 24 34 25 11 26 10 27 9 28 35 29 8 30 6 31 7 32 5 33 4 34
REMARK SMILES IDX 2 35 3 37 1 38
REMARK H PARENT 14 4 18 11 4 36
REMARK Flexibility Score: inf
ROOT
ATOM      1  C   UNL     1      -2.179   1.366   1.258  1.00  0.00     0.249 C 
ATOM      2  O   UNL     1      -2.513   0.971   2.355  1.00  0.00    -0.272 OA
ATOM      3  N   UNL     1      -3.027   1.255   0.216  1.00  0.00    -0.300 N 
ATOM      4  H   UNL     1      -2.769   1.646  -0.702  1.00  0.00     0.172 HD
ENDROOT
BRANCH   1   5
ATOM      5  C   UNL     1      -0.817   1.979   1.059  1.00  0.00     0.174 C 
BRANCH   5   6
ATOM      6  C   UNL     1       0.115   0.953   0.411  1.00  0.00     0.015 C 
ATOM      7  C   UNL     1       0.311  -0.230   1.362  1.00  0.00     0.010 C 
ATOM      8  C   UNL     1       1.468   1.605   0.121  1.00  0.00     0.010 C 
ENDBRANCH   5   6
BRANCH   5   9
ATOM      9  N   UNL     1      -0.271   2.384   2.357  1.00  0.00    -0.340 N 
ATOM     10  C   UNL     1       0.648   3.368   2.423  1.00  0.00     0.251 C 
ATOM     11  H   UNL     1      -0.588   1.917   3.218  1.00  0.00     0.164 HD
ATOM     12  O   UNL     1       1.022   3.920   1.407  1.00  0.00    -0.269 OA
BRANCH  10  13
ATOM     13  C   UNL     1       1.200   3.777   3.732  1.00  0.00     0.039 A 
ATOM     14  C   UNL     1       2.151   4.796   3.805  1.00  0.00     0.014 A 
ATOM     15  C   UNL     1       0.767   3.150   4.902  1.00  0.00     0.014 A 
ATOM     16  C   UNL     1       2.661   5.173   5.030  1.00  0.00     0.005 A 
ATOM     17  C   UNL     1       1.289   3.534   6.120  1.00  0.00     0.005 A 
ATOM     18  C   UNL     1       2.232   4.545   6.185  1.00  0.00    -0.043 A 
BRANCH  18  19
ATOM     19  C   UNL     1       2.794   4.962   7.519  1.00  0.00    -0.013 C 
ATOM     20  C   UNL     1       2.484   6.440   7.764  1.00  0.00     0.016 C 
ATOM     21  C   UNL     1       2.159   4.118   8.627  1.00  0.00     0.016 C 
ATOM     22  C   UNL     1       4.309   4.751   7.523  1.00  0.00     0.016 C 
ENDBRANCH  18  19
ENDBRANCH  10  13
ENDBRANCH   5   9
ENDBRANCH   1   5
BRANCH   3  23
ATOM     23  C   UNL     1      -4.249   0.614   0.379  1.00  0.00     0.190 A 
ATOM     24  S   UNL     1      -4.936  -0.152   1.840  1.00  0.00    -0.104 S 
ATOM     25  N   UNL     1      -5.205   0.405  -0.505  1.00  0.00    -0.217 NA
ATOM     26  C   UNL     1      -6.480  -0.684   1.112  1.00  0.00     0.101 A 
ATOM     27  C   UNL     1      -6.324  -0.236  -0.173  1.00  0.00     0.119 A 
BRANCH  27  28
ATOM     28  C   UNL     1      -7.384  -0.460  -1.177  1.00  0.00     0.153 A 
ATOM     29  O   UNL     1      -8.555  -1.091  -0.963  1.00  0.00    -0.458 OA
ATOM     30  C   UNL     1      -7.350  -0.060  -2.476  1.00  0.00     0.053 A 
ATOM     31  C   UNL     1      -9.269  -1.107  -2.102  1.00  0.00     0.123 A 
ATOM     32  C   UNL     1      -8.561  -0.484  -3.063  1.00  0.00     0.048 A 
BRANCH  31  33
ATOM     33  C   UNL     1     -10.634  -1.721  -2.275  1.00  0.00     0.191 C 
BRANCH  33  34
ATOM     34  N   UNL     1     -10.492  -3.122  -2.679  1.00  0.00    -0.349 N 
ATOM     35  C   UNL     1     -11.589  -3.876  -2.893  1.00  0.00     0.217 C 
ATOM     36  H   UNL     1      -9.555  -3.530  -2.800  1.00  0.00     0.163 HD
ATOM     37  O   UNL     1     -12.693  -3.394  -2.750  1.00  0.00    -0.275 OA
ATOM     38  C   UNL     1     -11.443  -5.316  -3.309  1.00  0.00     0.114 C 
ENDBRANCH  33  34
ENDBRANCH  31  33
ENDBRANCH  27  28
ENDBRANCH   3  23
TORSDOF 9
