REMARK SMILES COc1ccc(-c2[nH]c3ccccc3c2SCCNC(=O)[C@@H]2c3ccccc3O[C@H]3C=CC=C[C@H]32)cc1
REMARK SMILES IDX 17 1 16 2 15 3 7 4 8 5 9 6 14 8 10 9 13 10 11 11 12 12 6 13
REMARK SMILES IDX 3 14 37 15 4 16 36 17 5 18 2 19 1 20 18 21 19 22 20 23 21 25
REMARK SMILES IDX 22 26 35 27 23 28 30 29 34 30 28 31 24 32 29 33 31 34 33 35
REMARK SMILES IDX 27 36 25 37 32 38 26 39
REMARK H PARENT 8 7 19 24
REMARK Flexibility Score: inf
ROOT
ATOM      1  C   UNL     1      -1.195   6.919   1.813  1.00  0.00     0.096 C 
ENDROOT
BRANCH   1   2
ATOM      2  S   UNL     1      -0.923   6.599   0.048  1.00  0.00    -0.121 SA
BRANCH   2   3
ATOM      3  C   UNL     1       0.237   5.273   0.029  1.00  0.00     0.041 A 
ATOM      4  C   UNL     1       1.594   5.382   0.017  1.00  0.00     0.060 A 
ATOM      5  N   UNL     1       2.155   4.118   0.004  1.00  0.00    -0.354 N 
ATOM      6  C   UNL     1       1.160   3.165   0.008  1.00  0.00     0.047 A 
ATOM      7  H   UNL     1       3.166   3.919  -0.007  1.00  0.00     0.167 HD
ATOM      8  C   UNL     1      -0.075   3.841   0.023  1.00  0.00     0.014 A 
ATOM      9  C   UNL     1       1.175   1.774   0.000  1.00  0.00     0.027 A 
ATOM     10  C   UNL     1      -1.267   3.112   0.030  1.00  0.00     0.011 A 
ATOM     11  C   UNL     1      -0.013   1.076   0.008  1.00  0.00     0.002 A 
ATOM     12  C   UNL     1      -1.228   1.747   0.017  1.00  0.00     0.001 A 
BRANCH   4  13
ATOM     13  C   UNL     1       2.348   6.651   0.017  1.00  0.00    -0.001 A 
ATOM     14  C   UNL     1       3.763   9.034   0.018  1.00  0.00     0.118 A 
ATOM     15  C   UNL     1       2.670   8.879  -0.824  1.00  0.00     0.047 A 
ATOM     16  C   UNL     1       4.150   7.999   0.859  1.00  0.00     0.047 A 
ATOM     17  C   UNL     1       1.967   7.693  -0.832  1.00  0.00     0.014 A 
ATOM     18  C   UNL     1       3.448   6.812   0.862  1.00  0.00     0.014 A 
BRANCH  14  19
ATOM     19  O   UNL     1       4.457  10.203   0.019  1.00  0.00    -0.497 OA
ATOM     20  C   UNL     1       4.006  11.226  -0.871  1.00  0.00     0.278 C 
ENDBRANCH  14  19
ENDBRANCH   4  13
ENDBRANCH   2   3
ENDBRANCH   1   2
BRANCH   1  21
ATOM     21  C   UNL     1      -2.196   8.064   1.975  1.00  0.00     0.127 C 
BRANCH  21  22
ATOM     22  N   UNL     1      -2.416   8.322   3.401  1.00  0.00    -0.355 N 
ATOM     23  C   UNL     1      -3.265   9.295   3.786  1.00  0.00     0.228 C 
ATOM     24  H   UNL     1      -1.921   7.760   4.108  1.00  0.00     0.163 HD
ATOM     25  O   UNL     1      -3.847   9.957   2.953  1.00  0.00    -0.274 OA
BRANCH  23  26
ATOM     26  C   UNL     1      -3.490   9.561   5.252  1.00  0.00     0.123 C 
ATOM     27  C   UNL     1      -4.466  10.719   5.408  1.00  0.00     0.074 C 
ATOM     28  C   UNL     1      -4.036   8.317   5.904  1.00  0.00     0.007 A 
ATOM     29  C   UNL     1      -5.890  10.252   5.083  1.00  0.00     0.204 C 
ATOM     30  C   UNL     1      -4.433  11.276   6.805  1.00  0.00    -0.018 C 
ATOM     31  C   UNL     1      -5.377   8.207   6.228  1.00  0.00     0.124 A 
ATOM     32  C   UNL     1      -3.171   7.271   6.177  1.00  0.00     0.008 A 
ATOM     33  O   UNL     1      -6.252   9.217   6.001  1.00  0.00    -0.485 OA
ATOM     34  C   UNL     1      -6.826  11.420   5.308  1.00  0.00     0.018 C 
ATOM     35  C   UNL     1      -5.468  11.998   7.236  1.00  0.00    -0.004 C 
ATOM     36  C   UNL     1      -5.848   7.037   6.817  1.00  0.00     0.047 A 
ATOM     37  C   UNL     1      -3.642   6.114   6.766  1.00  0.00     0.001 A 
ATOM     38  C   UNL     1      -6.606  12.239   6.332  1.00  0.00    -0.001 C 
ATOM     39  C   UNL     1      -4.983   5.997   7.084  1.00  0.00     0.004 A 
ENDBRANCH  23  26
ENDBRANCH  21  22
ENDBRANCH   1  21
TORSDOF 7
