REMARK SMILES CO[C@H]1C[C@H](C)C/C=C/[C@@H]2C=C(C)[C@@H](C)[C@@H]3[C@@H](Cc4c[nH]c5ccccc45)NC(=O)[C@]32C(=O)C[C@@H]1O
REMARK SMILES IDX 32 1 33 2 31 3 10 4 11 5 16 6 29 7 12 8 14 9 17 10 30 11
REMARK SMILES IDX 28 12 13 13 15 14 9 16 8 17 7 18 5 19 6 20 18 22 19 23 27 24
REMARK SMILES IDX 20 25 22 26 26 27 21 28 23 29 25 30 24 32 34 33 35 34 3 35
REMARK SMILES IDX 4 36 2 38 1 39 36 40
REMARK H PARENT 28 15 21 31 36 41
REMARK Flexibility Score: 80.00
ROOT
ATOM      1  C   UNL     1       2.489   2.020   3.265  1.00  0.00     0.152 C 
ATOM      2  O   UNL     1       2.022   3.006   3.782  1.00  0.00    -0.298 OA
ENDROOT
BRANCH   1   3
ATOM      3  C   UNL     1       2.487   0.708   4.009  1.00  0.00     0.122 C 
ATOM      4  C   UNL     1       1.061   0.234   4.206  1.00  0.00     0.057 C 
ATOM      5  C   UNL     1       0.421   1.133   5.233  1.00  0.00    -0.019 C 
ATOM      6  C   UNL     1       3.122   0.891   5.417  1.00  0.00     0.043 C 
ATOM      7  C   UNL     1       3.448  -0.230   3.349  1.00  0.00     0.235 C 
ATOM      8  C   UNL     1       1.036   1.975   6.002  1.00  0.00    -0.073 C 
ATOM      9  C   UNL     1       2.539   2.174   5.979  1.00  0.00     0.018 C 
ATOM     10  C   UNL     1       4.601   0.926   5.021  1.00  0.00     0.091 C 
ATOM     11  O   UNL     1       3.181  -1.005   2.456  1.00  0.00    -0.274 OA
ATOM     12  N   UNL     1       4.671  -0.066   3.922  1.00  0.00    -0.352 N 
ATOM     13  C   UNL     1       0.218   2.797   6.964  1.00  0.00     0.039 C 
ATOM     14  C   UNL     1       3.061   2.412   7.397  1.00  0.00     0.013 C 
ATOM     15  H   UNL     1       5.526  -0.562   3.632  1.00  0.00     0.163 HD
BRANCH   4  16
ATOM     16  C   UNL     1       0.315   0.357   2.901  1.00  0.00    -0.022 C 
ATOM     17  C   UNL     1      -0.276  -0.681   2.369  1.00  0.00    -0.030 C 
BRANCH  17  18
ATOM     18  C   UNL     1      -0.985  -0.540   1.043  1.00  0.00     0.030 C 
BRANCH  18  19
ATOM     19  C   UNL     1       0.002  -0.004   0.002  1.00  0.00    -0.008 CG0
ATOM     20  C   UNL     1      -0.397  -0.511  -1.385  1.00  0.00     0.008 C 
ATOM     21  G   UNL     1      -0.019   1.526   0.010  1.00  0.00     0.000 G0
ENDBRANCH  18  19
ENDBRANCH  17  18
ENDBRANCH   4  16
BRANCH  10  22
ATOM     22  C   UNL     1       5.486   0.502   6.196  1.00  0.00     0.063 C 
BRANCH  22  23
ATOM     23  C   UNL     1       6.936   0.664   5.816  1.00  0.00    -0.021 A 
ATOM     24  C   UNL     1       7.728   1.893   5.907  1.00  0.00     0.003 A 
ATOM     25  C   UNL     1       7.744  -0.288   5.325  1.00  0.00     0.087 A 
ATOM     26  C   UNL     1       9.016   1.560   5.448  1.00  0.00     0.046 A 
ATOM     27  C   UNL     1       7.457   3.193   6.339  1.00  0.00     0.010 A 
ATOM     28  N   UNL     1       8.991   0.228   5.099  1.00  0.00    -0.361 N 
ATOM     29  C   UNL     1      10.004   2.539   5.421  1.00  0.00     0.026 A 
ATOM     30  C   UNL     1       8.443   4.139   6.304  1.00  0.00     0.001 A 
ATOM     31  H   UNL     1       9.791  -0.300   4.724  1.00  0.00     0.166 HD
ATOM     32  C   UNL     1       9.713   3.817   5.847  1.00  0.00     0.002 A 
ENDBRANCH  22  23
ENDBRANCH  10  22
ENDBRANCH   1   3
BRANCH   1  33
ATOM     33  C   UNL     1       3.072   2.103   1.878  1.00  0.00     0.111 C 
BRANCH  33  34
ATOM     34  C   UNL     1       2.287   1.203   0.924  1.00  0.00     0.150 C 
BRANCH  34  35
ATOM     35  C   UNL     1       1.417   2.057  -0.000  1.00  0.00     0.147 C 
BRANCH  35  36
ATOM     36  C   UNL     1      -0.019   1.526   0.010  1.00  0.00     0.038 CG0
ATOM     37  G   UNL     1       0.002  -0.004   0.002  1.00  0.00     0.000 G0
ENDBRANCH  35  36
BRANCH  35  38
ATOM     38  O   UNL     1       1.936   1.998  -1.331  1.00  0.00    -0.379 OA
ATOM     39  C   UNL     1       2.903   3.009  -1.622  1.00  0.00     0.195 C 
ENDBRANCH  35  38
ENDBRANCH  34  35
BRANCH  34  40
ATOM     40  O   UNL     1       3.199   0.432   0.139  1.00  0.00    -0.390 OA
ATOM     41  H   UNL     1       3.758  -0.127   0.735  1.00  0.00     0.211 HD
ENDBRANCH  34  40
ENDBRANCH  33  34
ENDBRANCH   1  33
TORSDOF 4
