REMARK SMILES COCCCn1c(=O)[nH]c2ccccc2/c1=N\C(=O)Nc1ccccc1C#N
REMARK SMILES IDX 6 1 16 2 17 3 15 4 14 5 13 6 12 7 11 8 10 9 9 10 7 11 8 12
REMARK SMILES IDX 5 14 4 15 3 16 2 17 1 18 18 19 19 20 20 21 21 23 26 24 22 25
REMARK SMILES IDX 25 26 23 27 24 28 27 29 28 30
REMARK H PARENT 9 13 20 22
REMARK Flexibility Score: inf
ROOT
ATOM      1  N   UNL     1       1.112   2.103   0.073  1.00  0.00    -0.277 N 
ATOM      2  C   UNL     1       2.348   1.514  -0.056  1.00  0.00     0.151 A 
ATOM      3  N   UNL     1       3.455   2.239  -0.011  1.00  0.00    -0.175 NA
ATOM      4  C   UNL     1       2.405   0.056  -0.245  1.00  0.00     0.041 A 
ATOM      5  C   UNL     1       3.617  -0.618  -0.384  1.00  0.00     0.014 A 
ATOM      6  C   UNL     1       3.618  -1.986  -0.559  1.00  0.00     0.001 A 
ATOM      7  C   UNL     1       2.423  -2.689  -0.599  1.00  0.00     0.002 A 
ATOM      8  C   UNL     1       1.216  -2.034  -0.462  1.00  0.00     0.027 A 
ATOM      9  C   UNL     1       1.194  -0.659  -0.284  1.00  0.00     0.053 A 
ATOM     10  N   UNL     1       0.001   0.034  -0.144  1.00  0.00    -0.307 N 
ATOM     11  C   UNL     1      -0.010   1.366   0.027  1.00  0.00     0.327 A 
ATOM     12  O   UNL     1      -1.081   1.930   0.140  1.00  0.00    -0.248 OA
ATOM     13  H   UNL     1      -0.891  -0.481  -0.172  1.00  0.00     0.171 HD
ENDROOT
BRANCH   1  14
ATOM     14  C   UNL     1       1.017   3.553   0.262  1.00  0.00     0.131 C 
BRANCH  14  15
ATOM     15  C   UNL     1       1.046   3.875   1.757  1.00  0.00     0.050 C 
BRANCH  15  16
ATOM     16  C   UNL     1       0.947   5.389   1.955  1.00  0.00     0.161 C 
BRANCH  16  17
ATOM     17  O   UNL     1       0.974   5.690   3.352  1.00  0.00    -0.385 OA
ATOM     18  C   UNL     1       0.886   7.085   3.647  1.00  0.00     0.194 C 
ENDBRANCH  16  17
ENDBRANCH  15  16
ENDBRANCH  14  15
ENDBRANCH   1  14
BRANCH   3  19
ATOM     19  C   UNL     1       4.649   1.634   0.070  1.00  0.00     0.347 C 
ATOM     20  O   UNL     1       5.392   1.619  -0.895  1.00  0.00    -0.246 OA
ATOM     21  N   UNL     1       5.028   1.042   1.221  1.00  0.00    -0.305 N 
ATOM     22  H   UNL     1       4.368   0.979   2.009  1.00  0.00     0.171 HD
BRANCH  21  23
ATOM     23  C   UNL     1       6.312   0.515   1.344  1.00  0.00     0.060 A 
ATOM     24  C   UNL     1       6.569  -0.508   2.269  1.00  0.00     0.076 A 
ATOM     25  C   UNL     1       7.345   1.004   0.555  1.00  0.00     0.027 A 
ATOM     26  C   UNL     1       7.860  -1.030   2.379  1.00  0.00     0.021 A 
ATOM     27  C   UNL     1       8.616   0.481   0.679  1.00  0.00     0.002 A 
ATOM     28  C   UNL     1       8.873  -0.532   1.588  1.00  0.00     0.002 A 
BRANCH  24  29
ATOM     29  C   UNL     1       5.513  -1.017   3.091  1.00  0.00     0.101 C 
ATOM     30  N   UNL     1       4.675  -1.421   3.744  1.00  0.00    -0.192 NA
ENDBRANCH  24  29
ENDBRANCH  21  23
ENDBRANCH   3  19
TORSDOF 7
