REMARK SMILES CC(C)(C)[C@@H]1C/C(=C\c2cccc(Cl)c2)c2nc3ccccc3c(C(=O)OCc3nc(N)nc(N)n3)c2C1
REMARK SMILES IDX 27 1 25 2 26 3 24 4 5 5 6 6 38 7 7 8 37 9 16 10 8 11 17 12
REMARK SMILES IDX 23 13 18 14 22 15 19 16 21 17 20 18 2 19 1 20 3 21 4 22 9 23
REMARK SMILES IDX 15 24 10 25 13 26 11 27 12 28 14 29 28 30 29 31 30 32 36 33
REMARK SMILES IDX 31 34 34 35 33 36 32 37 35 40
REMARK H PARENT 32 38 32 39 35 41 35 42
REMARK Flexibility Score: inf
ROOT
ATOM      1  O   UNL     1      -8.901   1.735   2.407  1.00  0.00    -0.454 OA
ENDROOT
BRANCH   1   2
ATOM      2  C   UNL     1      -8.562   1.633   1.107  1.00  0.00     0.339 C 
ATOM      3  O   UNL     1      -9.282   2.108   0.252  1.00  0.00    -0.246 OA
BRANCH   2   4
ATOM      4  C   UNL     1      -7.313   0.942   0.722  1.00  0.00     0.074 A 
ATOM      5  C   UNL     1      -4.703   3.600   1.239  1.00  0.00     0.003 C 
ATOM      6  C   UNL     1      -3.717   3.180   0.147  1.00  0.00     0.042 C 
ATOM      7  C   UNL     1      -6.103   3.114   0.873  1.00  0.00     0.043 C 
ATOM      8  C   UNL     1      -3.668   1.667   0.129  1.00  0.00    -0.021 C 
ATOM      9  C   UNL     1      -6.114   1.634   0.608  1.00  0.00    -0.006 A 
ATOM     10  C   UNL     1      -4.950   0.935   0.244  1.00  0.00     0.071 A 
ATOM     11  C   UNL     1      -2.501   1.011   0.019  1.00  0.00     0.014 C 
ATOM     12  N   UNL     1      -4.961  -0.365  -0.001  1.00  0.00    -0.248 NA
ATOM     13  C   UNL     1      -7.296  -0.495   0.447  1.00  0.00     0.015 A 
ATOM     14  C   UNL     1      -6.068  -1.102   0.083  1.00  0.00     0.072 A 
ATOM     15  C   UNL     1      -8.457  -1.271   0.534  1.00  0.00     0.011 A 
ATOM     16  C   UNL     1      -6.044  -2.483  -0.186  1.00  0.00     0.029 A 
ATOM     17  C   UNL     1      -8.395  -2.607   0.268  1.00  0.00     0.001 A 
ATOM     18  C   UNL     1      -7.191  -3.209  -0.091  1.00  0.00     0.002 A 
BRANCH   5  19
ATOM     19  C   UNL     1      -4.709   5.125   1.364  1.00  0.00    -0.035 C 
ATOM     20  C   UNL     1      -5.696   5.543   2.456  1.00  0.00     0.011 C 
ATOM     21  C   UNL     1      -3.306   5.612   1.731  1.00  0.00     0.011 C 
ATOM     22  C   UNL     1      -5.132   5.745   0.031  1.00  0.00     0.011 C 
ENDBRANCH   5  19
BRANCH  11  23
ATOM     23  C   UNL     1      -1.261   1.755  -0.264  1.00  0.00    -0.024 A 
ATOM     24  C   UNL     1      -0.042   1.311   0.254  1.00  0.00     0.028 A 
ATOM     25  C   UNL     1      -1.298   2.906  -1.057  1.00  0.00     0.008 A 
ATOM     26  C   UNL     1       1.115   2.018  -0.011  1.00  0.00     0.041 A 
ATOM     27  C   UNL     1      -0.136   3.602  -1.313  1.00  0.00     0.002 A 
ATOM     28  C   UNL     1       1.068   3.160  -0.792  1.00  0.00     0.020 A 
ATOM     29  Cl  UNL     1       2.630   1.473   0.638  1.00  0.00    -0.084 Cl
ENDBRANCH  11  23
ENDBRANCH   2   4
ENDBRANCH   1   2
BRANCH   1  30
ATOM     30  C   UNL     1     -10.141   2.427   2.712  1.00  0.00     0.310 C 
BRANCH  30  31
ATOM     31  C   UNL     1     -10.354   2.443   4.204  1.00  0.00     0.173 A 
ATOM     32  N   UNL     1      -9.877   3.441   4.927  1.00  0.00    -0.194 NA
ATOM     33  N   UNL     1     -11.021   1.461   4.785  1.00  0.00    -0.194 NA
ATOM     34  C   UNL     1     -10.063   3.458   6.245  1.00  0.00     0.225 A 
ATOM     35  C   UNL     1     -11.207   1.470   6.103  1.00  0.00     0.225 A 
ATOM     36  N   UNL     1     -10.729   2.471   6.833  1.00  0.00    -0.177 NA
BRANCH  34  37
ATOM     37  N   UNL     1      -9.564   4.501   6.999  1.00  0.00    -0.368 N 
ATOM     38  H   UNL     1      -9.708   4.513   8.018  1.00  0.00     0.159 HD
ATOM     39  H   UNL     1      -9.047   5.266   6.542  1.00  0.00     0.159 HD
ENDBRANCH  34  37
BRANCH  35  40
ATOM     40  N   UNL     1     -11.900   0.442   6.709  1.00  0.00    -0.368 N 
ATOM     41  H   UNL     1     -12.274  -0.332   6.141  1.00  0.00     0.159 HD
ATOM     42  H   UNL     1     -12.044   0.449   7.729  1.00  0.00     0.159 HD
ENDBRANCH  35  40
ENDBRANCH  30  31
ENDBRANCH   1  30
TORSDOF 8
