REMARK SMILES Cc1nc(-c2ccc(CNC(=O)c3sc4[nH]c(-c5ccco5)nc(=O)c4c3C)s2)cs1
REMARK SMILES IDX 11 1 12 2 10 3 13 5 28 6 27 7 26 8 14 9 15 10 24 11 16 12
REMARK SMILES IDX 25 13 23 14 17 15 18 17 22 18 19 19 21 20 20 21 9 22 8 23
REMARK SMILES IDX 29 24 7 25 5 26 6 27 4 28 3 29 30 30 2 31 31 32 1 33
REMARK H PARENT 10 4 16 16
REMARK Flexibility Score: inf
ROOT
ATOM      1  C   UNL     1      -3.779  -0.321   0.038  1.00  0.00     0.262 C 
ATOM      2  O   UNL     1      -4.035  -1.511   0.034  1.00  0.00    -0.268 OA
ATOM      3  N   UNL     1      -4.777   0.584   0.052  1.00  0.00    -0.346 N 
ATOM      4  H   UNL     1      -4.560   1.590   0.056  1.00  0.00     0.164 HD
ENDROOT
BRANCH   1   5
ATOM      5  C   UNL     1      -2.384   0.127   0.026  1.00  0.00     0.098 A 
ATOM      6  C   UNL     1      -1.339  -2.132   0.004  1.00  0.00     0.047 C 
ATOM      7  C   UNL     1      -1.247  -0.628   0.011  1.00  0.00    -0.012 A 
ATOM      8  C   UNL     1       0.002  -0.004   0.002  1.00  0.00     0.080 A 
ATOM      9  S   UNL     1      -1.750   1.796   0.036  1.00  0.00    -0.112 S 
ATOM     10  C   UNL     1      -0.017   1.412   0.010  1.00  0.00     0.108 A 
ATOM     11  C   UNL     1       1.349  -0.617  -0.014  1.00  0.00     0.282 A 
ATOM     12  N   UNL     1       1.094   2.128   0.003  1.00  0.00    -0.328 N 
ATOM     13  O   UNL     1       1.483  -1.827  -0.022  1.00  0.00    -0.267 OA
ATOM     14  N   UNL     1       2.424   0.195  -0.020  1.00  0.00    -0.187 NA
ATOM     15  C   UNL     1       2.284   1.557  -0.012  1.00  0.00     0.178 A 
ATOM     16  H   UNL     1       1.029   3.156   0.009  1.00  0.00     0.169 HD
BRANCH  15  17
ATOM     17  C   UNL     1       3.483   2.401  -0.019  1.00  0.00     0.169 A 
ATOM     18  O   UNL     1       4.759   1.965  -0.034  1.00  0.00    -0.461 OA
ATOM     19  C   UNL     1       3.503   3.767  -0.018  1.00  0.00     0.054 A 
ATOM     20  C   UNL     1       5.589   3.017  -0.037  1.00  0.00     0.196 A 
ATOM     21  C   UNL     1       4.854   4.151  -0.024  1.00  0.00     0.043 A 
ENDBRANCH  15  17
ENDBRANCH   1   5
BRANCH   3  22
ATOM     22  C   UNL     1      -6.172   0.135   0.064  1.00  0.00     0.163 C 
BRANCH  22  23
ATOM     23  C   UNL     1      -7.085   1.334   0.079  1.00  0.00     0.025 A 
ATOM     24  S   UNL     1      -7.751   2.219   1.479  1.00  0.00    -0.137 S 
ATOM     25  C   UNL     1      -7.608   2.021  -0.967  1.00  0.00     0.018 A 
ATOM     26  C   UNL     1      -8.689   3.444   0.581  1.00  0.00     0.054 A 
ATOM     27  C   UNL     1      -8.433   3.098  -0.719  1.00  0.00     0.022 A 
BRANCH  26  28
ATOM     28  C   UNL     1      -9.525   4.546   1.104  1.00  0.00     0.091 A 
ATOM     29  N   UNL     1     -10.159   5.372   0.285  1.00  0.00    -0.241 NA
ATOM     30  C   UNL     1      -9.674   4.743   2.452  1.00  0.00     0.096 A 
ATOM     31  C   UNL     1     -10.902   6.351   0.741  1.00  0.00     0.090 A 
ATOM     32  S   UNL     1     -10.752   6.167   2.460  1.00  0.00    -0.127 S 
ATOM     33  C   UNL     1     -11.689   7.377  -0.034  1.00  0.00     0.079 C 
ENDBRANCH  26  28
ENDBRANCH  22  23
ENDBRANCH   3  22
TORSDOF 5
