REMARK SMILES O=c1c(O)cccc2c([C@H]3Oc4cc(O)cc(O)c4C[C@H]3O)cc(O)c(O)c12
REMARK SMILES IDX 6 1 7 2 8 3 9 4 23 5 24 6 26 7 28 8 2 9 1 10 3 11 5 12 4 13
REMARK SMILES IDX 10 15 11 16 21 17 12 18 20 19 19 20 13 21 17 22 14 23 16 24
REMARK SMILES IDX 22 25 18 27 15 29 27 31 25 33
REMARK H PARENT 4 14 22 26 18 28 15 30 27 32 25 34
REMARK Flexibility Score: inf
ROOT
ATOM      1  C   UNL     1       2.471  -0.504   0.499  1.00  0.00     0.005 A 
ATOM      2  C   UNL     1       3.094   0.690   0.309  1.00  0.00     0.009 A 
ATOM      3  C   UNL     1       2.520   1.972   0.161  1.00  0.00    -0.003 A 
ATOM      4  C   UNL     1       3.487   2.971  -0.018  1.00  0.00     0.007 A 
ATOM      5  C   UNL     1       3.104   4.270  -0.176  1.00  0.00     0.058 A 
ATOM      6  C   UNL     1       1.757   4.627  -0.165  1.00  0.00     0.158 A 
ATOM      7  C   UNL     1       0.774   3.664   0.010  1.00  0.00     0.169 A 
ATOM      8  C   UNL     1       1.147   2.324   0.176  1.00  0.00     0.079 A 
ATOM      9  C   UNL     1      -0.008   1.438   0.346  1.00  0.00     0.231 A 
ATOM     10  O   UNL     1      -1.109   1.965   0.318  1.00  0.00    -0.285 OA
ATOM     11  C   UNL     1       0.017   0.030   0.535  1.00  0.00     0.163 A 
ATOM     12  C   UNL     1       1.111  -0.801   0.599  1.00  0.00     0.050 A 
ENDROOT
BRANCH  11  13
ATOM     13  O   UNL     1      -1.193  -0.571   0.671  1.00  0.00    -0.504 OA
ATOM     14  H   UNL     1      -1.711  -0.353  -0.144  1.00  0.00     0.293 HD
ENDBRANCH  11  13
BRANCH   4  15
ATOM     15  C   UNL     1       4.950   2.609  -0.035  1.00  0.00     0.233 C 
ATOM     16  O   UNL     1       5.690   3.627  -0.710  1.00  0.00    -0.482 OA
ATOM     17  C   UNL     1       5.473   2.504   1.404  1.00  0.00     0.164 C 
ATOM     18  C   UNL     1       7.045   3.592  -0.624  1.00  0.00     0.131 A 
ATOM     19  C   UNL     1       6.928   2.028   1.352  1.00  0.00     0.079 C 
ATOM     20  C   UNL     1       7.694   2.848   0.346  1.00  0.00     0.039 A 
ATOM     21  C   UNL     1       7.787   4.328  -1.542  1.00  0.00     0.093 A 
ATOM     22  C   UNL     1       9.084   2.845   0.401  1.00  0.00     0.126 A 
ATOM     23  C   UNL     1       9.170   4.323  -1.486  1.00  0.00     0.122 A 
ATOM     24  C   UNL     1       9.821   3.581  -0.512  1.00  0.00     0.092 A 
BRANCH  17  25
ATOM     25  O   UNL     1       5.407   3.784   2.035  1.00  0.00    -0.389 OA
ATOM     26  H   UNL     1       4.468   4.096   2.048  1.00  0.00     0.211 HD
ENDBRANCH  17  25
BRANCH  22  27
ATOM     27  O   UNL     1       9.721   2.118   1.356  1.00  0.00    -0.507 OA
ATOM     28  H   UNL     1       9.392   1.192   1.235  1.00  0.00     0.293 HD
ENDBRANCH  22  27
BRANCH  23  29
ATOM     29  O   UNL     1       9.890   5.044  -2.386  1.00  0.00    -0.508 OA
ATOM     30  H   UNL     1      10.492   4.387  -2.817  1.00  0.00     0.293 HD
ENDBRANCH  23  29
ENDBRANCH   4  15
BRANCH   7  31
ATOM     31  O   UNL     1      -0.538   4.017   0.021  1.00  0.00    -0.504 OA
ATOM     32  H   UNL     1      -0.681   4.485  -0.840  1.00  0.00     0.293 HD
ENDBRANCH   7  31
BRANCH   6  33
ATOM     33  O   UNL     1       1.403   5.929  -0.327  1.00  0.00    -0.504 OA
ATOM     34  H   UNL     1       1.812   6.201  -1.186  1.00  0.00     0.293 HD
ENDBRANCH   6  33
TORSDOF 7
