REMARK SMILES NC(=O)C1CCN(C(=O)c2ccc3c(c2)nc(SCc2ccccc2Cl)n2c4ccccc4nc32)CC1
REMARK SMILES IDX 17 1 16 2 14 3 15 4 10 5 11 6 12 7 13 8 35 9 27 10 28 11
REMARK SMILES IDX 29 12 30 13 31 14 32 15 33 16 34 17 18 18 19 19 20 20 22 21
REMARK SMILES IDX 21 22 23 23 24 24 25 25 26 26 8 27 9 28 7 29 36 30 6 31
REMARK SMILES IDX 37 32 5 33 4 34 2 35 3 36 1 37
REMARK H PARENT 1 38 1 39
REMARK Flexibility Score: inf
ROOT
ATOM      1  C   UNL     1       3.450   1.889  -0.788  1.00  0.00     0.175 A 
ATOM      2  N   UNL     1       2.319   1.234  -0.762  1.00  0.00    -0.224 NA
ATOM      3  C   UNL     1       1.153   1.823  -0.397  1.00  0.00     0.078 A 
ATOM      4  C   UNL     1      -0.045   1.109  -0.375  1.00  0.00     0.043 A 
ATOM      5  C   UNL     1      -1.220   1.753   0.000  1.00  0.00     0.042 A 
ATOM      6  C   UNL     1      -1.202   3.106   0.364  1.00  0.00     0.015 A 
ATOM      7  C   UNL     1      -0.035   3.814   0.347  1.00  0.00     0.015 A 
ATOM      8  C   UNL     1       1.152   3.188  -0.031  1.00  0.00     0.044 A 
ATOM      9  C   UNL     1       2.431   3.915  -0.064  1.00  0.00     0.149 A 
ATOM     10  N   UNL     1       3.552   3.214  -0.451  1.00  0.00    -0.271 N 
ATOM     11  C   UNL     1       4.616   4.095  -0.404  1.00  0.00     0.075 A 
ATOM     12  C   UNL     1       5.972   3.981  -0.676  1.00  0.00     0.029 A 
ATOM     13  C   UNL     1       6.794   5.079  -0.528  1.00  0.00     0.002 A 
ATOM     14  C   UNL     1       6.274   6.296  -0.109  1.00  0.00     0.002 A 
ATOM     15  C   UNL     1       4.943   6.428   0.163  1.00  0.00     0.030 A 
ATOM     16  C   UNL     1       4.089   5.328   0.020  1.00  0.00     0.090 A 
ATOM     17  N   UNL     1       2.759   5.155   0.211  1.00  0.00    -0.228 NA
ENDROOT
BRANCH   1  18
ATOM     18  S   UNL     1       4.909   1.031  -1.278  1.00  0.00    -0.083 SA
BRANCH  18  19
ATOM     19  C   UNL     1       4.217  -0.611  -1.594  1.00  0.00     0.115 C 
BRANCH  19  20
ATOM     20  C   UNL     1       5.315  -1.542  -2.039  1.00  0.00    -0.019 A 
ATOM     21  C   UNL     1       6.622  -2.519  -3.791  1.00  0.00     0.000 A 
ATOM     22  C   UNL     1       5.612  -1.669  -3.383  1.00  0.00     0.006 A 
ATOM     23  C   UNL     1       7.330  -3.252  -2.856  1.00  0.00     0.002 A 
ATOM     24  C   UNL     1       7.030  -3.130  -1.512  1.00  0.00     0.021 A 
ATOM     25  C   UNL     1       6.022  -2.275  -1.103  1.00  0.00     0.045 A 
ATOM     26  Cl  UNL     1       5.645  -2.123   0.585  1.00  0.00    -0.084 Cl
ENDBRANCH  19  20
ENDBRANCH  18  19
ENDBRANCH   1  18
BRANCH   5  27
ATOM     27  C   UNL     1      -2.494   1.004   0.019  1.00  0.00     0.253 C 
ATOM     28  O   UNL     1      -3.510   1.521  -0.404  1.00  0.00    -0.269 OA
ATOM     29  N   UNL     1      -2.530  -0.253   0.505  1.00  0.00    -0.339 N 
ATOM     30  C   UNL     1      -1.343  -0.845   1.136  1.00  0.00     0.120 C 
ATOM     31  C   UNL     1      -3.759  -1.054   0.419  1.00  0.00     0.120 C 
ATOM     32  C   UNL     1      -1.729  -1.359   2.527  1.00  0.00     0.035 C 
ATOM     33  C   UNL     1      -4.116  -1.567   1.813  1.00  0.00     0.035 C 
ATOM     34  C   UNL     1      -2.917  -2.316   2.401  1.00  0.00     0.081 C 
BRANCH  34  35
ATOM     35  C   UNL     1      -3.278  -2.850   3.763  1.00  0.00     0.220 C 
ATOM     36  O   UNL     1      -2.647  -2.501   4.738  1.00  0.00    -0.275 OA
ATOM     37  N   UNL     1      -4.302  -3.716   3.898  1.00  0.00    -0.369 N 
ATOM     38  H   UNL     1      -4.838  -4.013   3.070  1.00  0.00     0.159 HD
ATOM     39  H   UNL     1      -4.549  -4.081   4.829  1.00  0.00     0.159 HD
ENDBRANCH  34  35
ENDBRANCH   5  27
TORSDOF 5
