REMARK SMILES COc1ccc(O)c(/C=N/Nc2nc3ccccc3nc2Cc2ccccc2)c1
REMARK SMILES IDX 11 1 10 3 9 4 8 5 3 6 29 7 4 8 5 9 6 10 2 11 1 12 7 13 12 15
REMARK SMILES IDX 13 16 21 17 14 18 20 19 19 20 15 21 18 22 16 23 17 24 22 25
REMARK SMILES IDX 23 26 28 27 24 28 27 29 25 30 26 31
REMARK H PARENT 11 2 7 14
REMARK Flexibility Score: inf
ROOT
ATOM      1  N   UNL     1       2.324   5.898  -1.400  1.00  0.00    -0.260 N 
ATOM      2  H   UNL     1       2.328   5.550  -0.431  1.00  0.00     0.192 HD
ENDROOT
BRANCH   1   3
ATOM      3  N   UNL     1       3.534   6.152  -2.058  1.00  0.00    -0.182 NA
ATOM      4  C   UNL     1       4.661   5.950  -1.446  1.00  0.00     0.145 C 
BRANCH   4   5
ATOM      5  C   UNL     1       5.935   6.218  -2.138  1.00  0.00     0.040 A 
ATOM      6  C   UNL     1       8.340   6.256  -2.139  1.00  0.00     0.119 A 
ATOM      7  C   UNL     1       7.149   6.002  -1.483  1.00  0.00     0.060 A 
ATOM      8  C   UNL     1       8.331   6.724  -3.446  1.00  0.00     0.050 A 
ATOM      9  C   UNL     1       7.133   6.940  -4.101  1.00  0.00     0.050 A 
ATOM     10  C   UNL     1       5.933   6.686  -3.459  1.00  0.00     0.124 A 
BRANCH   6  11
ATOM     11  O   UNL     1       9.523   6.045  -1.502  1.00  0.00    -0.497 OA
ATOM     12  C   UNL     1      10.715   6.328  -2.238  1.00  0.00     0.278 C 
ENDBRANCH   6  11
BRANCH  10  13
ATOM     13  O   UNL     1       4.756   6.893  -4.107  1.00  0.00    -0.507 OA
ATOM     14  H   UNL     1       4.817   6.342  -4.927  1.00  0.00     0.293 HD
ENDBRANCH  10  13
ENDBRANCH   4   5
ENDBRANCH   1   3
BRANCH   1  15
ATOM     15  C   UNL     1       1.121   6.114  -2.054  1.00  0.00     0.169 A 
ATOM     16  N   UNL     1       1.122   6.554  -3.299  1.00  0.00    -0.226 NA
ATOM     17  C   UNL     1      -0.091   5.856  -1.389  1.00  0.00     0.090 A 
ATOM     18  C   UNL     1      -0.042   6.768  -3.926  1.00  0.00     0.091 A 
ATOM     19  N   UNL     1      -1.238   6.060  -1.989  1.00  0.00    -0.247 NA
ATOM     20  C   UNL     1      -1.260   6.512  -3.249  1.00  0.00     0.089 A 
ATOM     21  C   UNL     1      -0.074   7.242  -5.248  1.00  0.00     0.031 A 
ATOM     22  C   UNL     1      -2.477   6.739  -3.915  1.00  0.00     0.030 A 
ATOM     23  C   UNL     1      -1.272   7.451  -5.861  1.00  0.00     0.002 A 
ATOM     24  C   UNL     1      -2.470   7.200  -5.196  1.00  0.00     0.002 A 
BRANCH  17  25
ATOM     25  C   UNL     1      -0.070   5.347   0.030  1.00  0.00     0.095 C 
BRANCH  25  26
ATOM     26  C   UNL     1      -0.050   3.840   0.022  1.00  0.00    -0.042 A 
ATOM     27  C   UNL     1      -1.238   3.133   0.030  1.00  0.00     0.004 A 
ATOM     28  C   UNL     1       1.156   3.165   0.008  1.00  0.00     0.004 A 
ATOM     29  C   UNL     1      -1.219   1.751   0.017  1.00  0.00     0.000 A 
ATOM     30  C   UNL     1       1.175   1.783   0.000  1.00  0.00     0.000 A 
ATOM     31  C   UNL     1      -0.013   1.076   0.008  1.00  0.00     0.000 A 
ENDBRANCH  25  26
ENDBRANCH  17  25
ENDBRANCH   1  15
TORSDOF 7
