REMARK SMILES CCCCn1c(N)c(N(Cc2ccccc2)C(=O)/C=C/c2cccc(C(F)(F)F)c2)c(=O)[nH]c1=O
REMARK SMILES IDX 9 1 8 2 5 3 34 4 6 5 33 6 35 7 31 8 32 10 4 11 3 12 2 13
REMARK SMILES IDX 1 14 7 15 10 18 11 19 16 20 12 21 15 22 13 23 14 24 17 25
REMARK SMILES IDX 18 26 19 27 20 28 21 29 30 30 22 31 25 32 23 33 24 34 26 35
REMARK SMILES IDX 27 36 28 37 29 38
REMARK H PARENT 33 9 7 16 7 17
REMARK Flexibility Score: inf
ROOT
ATOM      1  N   UNL     1      -2.390   8.092   0.053  1.00  0.00    -0.296 N 
ENDROOT
BRANCH   1   2
ATOM      2  C   UNL     1      -2.573   9.478   0.239  1.00  0.00     0.151 A 
ATOM      3  N   UNL     1      -2.140  11.489   1.429  1.00  0.00    -0.278 N 
ATOM      4  C   UNL     1      -2.941  12.162   0.583  1.00  0.00     0.330 A 
ATOM      5  C   UNL     1      -1.941  10.137   1.274  1.00  0.00     0.137 A 
ATOM      6  N   UNL     1      -3.565  11.536  -0.431  1.00  0.00    -0.272 N 
ATOM      7  O   UNL     1      -3.103  13.357   0.738  1.00  0.00    -0.248 OA
ATOM      8  C   UNL     1      -3.400  10.214  -0.631  1.00  0.00     0.279 A 
ATOM      9  H   UNL     1      -4.176  12.074  -1.062  1.00  0.00     0.175 HD
ATOM     10  O   UNL     1      -3.967   9.658  -1.556  1.00  0.00    -0.267 OA
BRANCH   3  11
ATOM     11  C   UNL     1      -1.475  12.202   2.523  1.00  0.00     0.129 C 
BRANCH  11  12
ATOM     12  C   UNL     1      -0.115  12.715   2.045  1.00  0.00     0.022 C 
BRANCH  12  13
ATOM     13  C   UNL     1       0.580  13.459   3.188  1.00  0.00    -0.002 C 
ATOM     14  C   UNL     1       1.940  13.972   2.710  1.00  0.00     0.004 C 
ENDBRANCH  12  13
ENDBRANCH  11  12
ENDBRANCH   3  11
BRANCH   5  15
ATOM     15  N   UNL     1      -1.123   9.451   2.138  1.00  0.00    -0.383 N 
ATOM     16  H   UNL     1      -0.656   9.953   2.907  1.00  0.00     0.158 HD
ATOM     17  H   UNL     1      -0.976   8.438   2.019  1.00  0.00     0.158 HD
ENDBRANCH   5  15
ENDBRANCH   1   2
BRANCH   1  18
ATOM     18  C   UNL     1      -3.524   7.177   0.202  1.00  0.00     0.161 C 
BRANCH  18  19
ATOM     19  C   UNL     1      -3.699   6.826   1.657  1.00  0.00    -0.028 A 
ATOM     20  C   UNL     1      -4.583   7.545   2.440  1.00  0.00     0.005 A 
ATOM     21  C   UNL     1      -2.979   5.783   2.208  1.00  0.00     0.005 A 
ATOM     22  C   UNL     1      -4.744   7.223   3.774  1.00  0.00     0.000 A 
ATOM     23  C   UNL     1      -3.135   5.464   3.544  1.00  0.00     0.000 A 
ATOM     24  C   UNL     1      -4.020   6.183   4.327  1.00  0.00     0.000 A 
ENDBRANCH  18  19
ENDBRANCH   1  18
BRANCH   1  25
ATOM     25  C   UNL     1      -1.171   7.610  -0.262  1.00  0.00     0.251 C 
ATOM     26  O   UNL     1      -0.249   8.377  -0.470  1.00  0.00    -0.269 OA
BRANCH  25  27
ATOM     27  C   UNL     1      -0.957   6.165  -0.353  1.00  0.00     0.072 C 
ATOM     28  C   UNL     1       0.262   5.683  -0.667  1.00  0.00     0.014 C 
BRANCH  28  29
ATOM     29  C   UNL     1       0.477   4.229  -0.759  1.00  0.00    -0.025 A 
ATOM     30  C   UNL     1       1.740   3.725  -1.085  1.00  0.00     0.021 A 
ATOM     31  C   UNL     1      -0.580   3.345  -0.519  1.00  0.00     0.008 A 
ATOM     32  C   UNL     1       1.934   2.362  -1.168  1.00  0.00     0.056 A 
ATOM     33  C   UNL     1      -0.371   1.986  -0.611  1.00  0.00     0.001 A 
ATOM     34  C   UNL     1       0.883   1.494  -0.930  1.00  0.00     0.013 A 
BRANCH  32  35
ATOM     35  C   UNL     1       3.294   1.817  -1.519  1.00  0.00     0.416 C 
ATOM     36  F   UNL     1       3.244   0.419  -1.542  1.00  0.00    -0.166 F 
ATOM     37  F   UNL     1       3.676   2.291  -2.779  1.00  0.00    -0.166 F 
ATOM     38  F   UNL     1       4.225   2.234  -0.562  1.00  0.00    -0.166 F 
ENDBRANCH  32  35
ENDBRANCH  28  29
ENDBRANCH  25  27
ENDBRANCH   1  25
TORSDOF 11
