REMARK SMILES CC1CC[NH+]([C@@H](CNC(=O)CCc2nc3sc4c(c3c(=O)[nH]2)CCCC4)c2cccs2)CC1
REMARK SMILES IDX 8 1 9 2 10 3 7 5 6 6 5 7 1 8 2 9 33 10 3 11 32 12 4 13 27 15
REMARK SMILES IDX 31 16 28 17 30 18 29 19 11 20 12 21 13 22 14 23 22 24 15 25
REMARK SMILES IDX 20 26 19 28 16 29 21 30 18 31 17 32 23 33 26 34 24 35 25 36
REMARK H PARENT 8 4 5 14 22 27
REMARK Flexibility Score: inf
ROOT
ATOM      1  N   UNL     1      -2.545   3.705  -1.497  1.00  0.00    -0.350 N 
ATOM      2  C   UNL     1      -2.971   4.175  -2.686  1.00  0.00     0.220 C 
ATOM      3  O   UNL     1      -2.417   3.828  -3.708  1.00  0.00    -0.275 OA
ATOM      4  H   UNL     1      -3.015   3.999  -0.629  1.00  0.00     0.163 HD
ENDROOT
BRANCH   1   5
ATOM      5  C   UNL     1      -1.414   2.776  -1.439  1.00  0.00     0.186 C 
BRANCH   5   6
ATOM      6  C   UNL     1      -1.210   2.310   0.004  1.00  0.00     0.244 C 
BRANCH   6   7
ATOM      7  N   UNL     1      -2.490   1.784   0.524  1.00  0.00    -0.327 N 
ATOM      8  C   UNL     1      -5.637  -0.652   2.078  1.00  0.00     0.008 C 
ATOM      9  C   UNL     1      -4.252  -0.262   1.559  1.00  0.00    -0.003 C 
ATOM     10  C   UNL     1      -4.373   0.269   0.128  1.00  0.00     0.065 C 
ATOM     11  C   UNL     1      -3.659   0.831   2.453  1.00  0.00     0.065 C 
ATOM     12  C   UNL     1      -2.994   0.714  -0.364  1.00  0.00     0.263 C 
ATOM     13  C   UNL     1      -2.301   1.260   1.893  1.00  0.00     0.263 C 
ATOM     14  H   UNL     1      -3.180   2.547   0.551  1.00  0.00     0.348 HD
ENDBRANCH   6   7
BRANCH   6  15
ATOM     15  C   UNL     1      -0.784   3.478   0.855  1.00  0.00     0.064 A 
ATOM     16  S   UNL     1      -1.783   4.777   1.564  1.00  0.00    -0.143 S 
ATOM     17  C   UNL     1       0.459   3.820   1.274  1.00  0.00     0.022 A 
ATOM     18  C   UNL     1      -0.476   5.687   2.372  1.00  0.00     0.065 A 
ATOM     19  C   UNL     1       0.617   4.952   2.052  1.00  0.00     0.012 A 
ENDBRANCH   6  15
ENDBRANCH   5   6
ENDBRANCH   1   5
BRANCH   2  20
ATOM     20  C   UNL     1      -4.135   5.130  -2.746  1.00  0.00     0.108 C 
BRANCH  20  21
ATOM     21  C   UNL     1      -4.412   5.506  -4.203  1.00  0.00     0.085 C 
BRANCH  21  22
ATOM     22  C   UNL     1      -5.575   6.462  -4.263  1.00  0.00     0.111 A 
ATOM     23  N   UNL     1      -6.166   6.823  -3.156  1.00  0.00    -0.224 NA
ATOM     24  N   UNL     1      -5.994   6.927  -5.468  1.00  0.00    -0.310 N 
ATOM     25  C   UNL     1      -7.193   7.668  -3.174  1.00  0.00     0.131 A 
ATOM     26  C   UNL     1      -7.029   7.782  -5.567  1.00  0.00     0.259 A 
ATOM     27  H   UNL     1      -5.510   6.620  -6.324  1.00  0.00     0.171 HD
ATOM     28  C   UNL     1      -7.697   8.203  -4.370  1.00  0.00     0.080 A 
ATOM     29  S   UNL     1      -8.233   8.389  -1.929  1.00  0.00    -0.120 S 
ATOM     30  O   UNL     1      -7.394   8.191  -6.656  1.00  0.00    -0.269 OA
ATOM     31  C   UNL     1      -8.831   9.116  -4.236  1.00  0.00    -0.019 A 
ATOM     32  C   UNL     1      -9.281   9.354  -2.986  1.00  0.00     0.011 A 
ATOM     33  C   UNL     1      -9.492   9.779  -5.441  1.00  0.00     0.037 C 
ATOM     34  C   UNL     1     -10.418  10.242  -2.584  1.00  0.00     0.047 C 
ATOM     35  C   UNL     1     -10.880  10.272  -5.033  1.00  0.00     0.005 C 
ATOM     36  C   UNL     1     -10.775  11.141  -3.777  1.00  0.00     0.006 C 
ENDBRANCH  21  22
ENDBRANCH  20  21
ENDBRANCH   2  20
TORSDOF 7
