REMARK SMILES [NH3+][C@H]1CC[C@@H](NC(=O)c2ccc3c(c2)nc(-c2ccoc2)n3C2CCCCC2)CC1
REMARK SMILES IDX 7 1 8 2 6 3 9 5 10 6 11 7 14 8 12 9 13 10 22 11 15 12 16 13
REMARK SMILES IDX 23 14 28 15 24 16 27 17 25 18 26 19 17 20 21 21 18 22 20 23
REMARK SMILES IDX 19 24 5 25 29 26 4 27 30 28 3 29 2 30 1 31
REMARK H PARENT 6 4 1 32 1 33 1 34
REMARK Flexibility Score: inf
ROOT
ATOM      1  C   UNL     1      -4.563  -3.620  -3.378  1.00  0.00     0.251 C 
ATOM      2  O   UNL     1      -5.615  -4.028  -2.926  1.00  0.00    -0.269 OA
ATOM      3  N   UNL     1      -4.191  -3.957  -4.629  1.00  0.00    -0.349 N 
ATOM      4  H   UNL     1      -3.300  -3.611  -5.013  1.00  0.00     0.164 HD
ENDROOT
BRANCH   1   5
ATOM      5  C   UNL     1      -3.692  -2.755  -2.557  1.00  0.00     0.042 A 
ATOM      6  C   UNL     1      -2.481  -2.285  -3.081  1.00  0.00     0.016 A 
ATOM      7  C   UNL     1      -1.667  -1.485  -2.331  1.00  0.00     0.029 A 
ATOM      8  C   UNL     1      -4.075  -2.414  -1.263  1.00  0.00     0.044 A 
ATOM      9  C   UNL     1      -2.035  -1.129  -1.040  1.00  0.00     0.069 A 
ATOM     10  C   UNL     1      -3.248  -1.594  -0.496  1.00  0.00     0.090 A 
ATOM     11  N   UNL     1      -1.445  -0.357  -0.060  1.00  0.00    -0.321 N 
ATOM     12  N   UNL     1      -3.344  -1.088   0.759  1.00  0.00    -0.228 NA
ATOM     13  C   UNL     1      -2.286  -0.360   1.022  1.00  0.00     0.144 A 
BRANCH  11  14
ATOM     14  C   UNL     1      -0.161   0.341  -0.159  1.00  0.00     0.089 C 
ATOM     15  C   UNL     1      -0.160   1.231  -1.404  1.00  0.00     0.025 C 
ATOM     16  C   UNL     1       0.970  -0.684  -0.264  1.00  0.00     0.025 C 
ATOM     17  C   UNL     1       1.182   1.960  -1.508  1.00  0.00     0.002 C 
ATOM     18  C   UNL     1       2.311   0.045  -0.368  1.00  0.00     0.002 C 
ATOM     19  C   UNL     1       2.313   0.935  -1.613  1.00  0.00     0.000 C 
ENDBRANCH  11  14
BRANCH  13  20
ATOM     20  C   UNL     1      -2.038   0.352   2.292  1.00  0.00     0.056 A 
ATOM     21  C   UNL     1      -2.957   0.691   3.238  1.00  0.00     0.206 A 
ATOM     22  C   UNL     1      -0.747   0.835   2.801  1.00  0.00     0.054 A 
ATOM     23  O   UNL     1      -2.325   1.325   4.234  1.00  0.00    -0.472 OA
ATOM     24  C   UNL     1      -1.010   1.419   3.982  1.00  0.00     0.195 A 
ENDBRANCH  13  20
ENDBRANCH   1   5
BRANCH   3  25
ATOM     25  C   UNL     1      -5.055  -4.815  -5.444  1.00  0.00     0.082 C 
ATOM     26  C   UNL     1      -4.779  -4.556  -6.926  1.00  0.00     0.031 C 
ATOM     27  C   UNL     1      -4.767  -6.283  -5.120  1.00  0.00     0.031 C 
ATOM     28  C   UNL     1      -3.313  -4.869  -7.235  1.00  0.00     0.067 C 
ATOM     29  C   UNL     1      -3.301  -6.595  -5.428  1.00  0.00     0.067 C 
ATOM     30  C   UNL     1      -3.025  -6.336  -6.911  1.00  0.00     0.180 C 
BRANCH  30  31
ATOM     31  N   UNL     1      -1.618  -6.635  -7.207  1.00  0.00    -0.355 N 
ATOM     32  H   UNL     1      -1.423  -7.623  -6.989  1.00  0.00     0.344 HD
ATOM     33  H   UNL     1      -1.010  -6.032  -6.635  1.00  0.00     0.344 HD
ATOM     34  H   UNL     1      -1.431  -6.461  -8.205  1.00  0.00     0.344 HD
ENDBRANCH  30  31
ENDBRANCH   3  25
TORSDOF 5
