REMARK SMILES COc1cc(-c2[nH]nc3c2[C@@H](c2c[nH]nc2-c2ccc(F)cc2)C(C#N)=C(N)O3)cc(OC)c1OC
REMARK SMILES IDX 6 1 10 2 9 3 8 4 7 5 29 6 27 7 24 8 11 9 5 11 3 12 34 13
REMARK SMILES IDX 4 14 31 15 30 16 2 17 1 18 35 19 36 20 32 21 33 22 12 23
REMARK SMILES IDX 16 24 13 25 15 26 14 27 17 29 23 30 18 31 22 32 19 33 20 34
REMARK SMILES IDX 21 35 25 36 26 37 28 38
REMARK H PARENT 7 10 14 28 28 39 28 40
REMARK Flexibility Score: inf
ROOT
ATOM      1  C   UNL     1       2.869   5.016   0.704  1.00  0.00     0.073 A 
ATOM      2  C   UNL     1       1.980   4.083   1.122  1.00  0.00     0.055 A 
ATOM      3  C   UNL     1       0.702   4.675   1.146  1.00  0.00     0.244 A 
ATOM      4  N   UNL     1       0.817   5.914   0.759  1.00  0.00    -0.136 NA
ATOM      5  N   UNL     1       2.168   6.166   0.471  1.00  0.00    -0.274 N 
ATOM      6  O   UNL     1      -0.406   3.982   1.524  1.00  0.00    -0.420 OA
ATOM      7  C   UNL     1      -0.300   2.642   1.612  1.00  0.00     0.207 C 
ATOM      8  C   UNL     1       0.868   1.966   1.616  1.00  0.00     0.102 C 
ATOM      9  C   UNL     1       2.210   2.646   1.515  1.00  0.00     0.107 C 
ATOM     10  H   UNL     1       2.561   7.060   0.143  1.00  0.00     0.190 HD
ENDROOT
BRANCH   1  11
ATOM     11  C   UNL     1       4.325   4.826   0.530  1.00  0.00     0.008 A 
ATOM     12  C   UNL     1       6.168   3.569  -0.372  1.00  0.00     0.165 A 
ATOM     13  C   UNL     1       7.060   4.468   0.204  1.00  0.00     0.203 A 
ATOM     14  C   UNL     1       4.805   3.745  -0.211  1.00  0.00     0.061 A 
ATOM     15  C   UNL     1       6.584   5.546   0.943  1.00  0.00     0.165 A 
ATOM     16  C   UNL     1       5.221   5.729   1.102  1.00  0.00     0.061 A 
BRANCH  12  17
ATOM     17  O   UNL     1       6.637   2.516  -1.094  1.00  0.00    -0.493 OA
ATOM     18  C   UNL     1       5.669   1.710  -1.768  1.00  0.00     0.278 C 
ENDBRANCH  12  17
BRANCH  13  19
ATOM     19  O   UNL     1       8.400   4.293   0.044  1.00  0.00    -0.490 OA
ATOM     20  C   UNL     1       9.005   4.919  -1.089  1.00  0.00     0.278 C 
ENDBRANCH  13  19
BRANCH  15  21
ATOM     21  O   UNL     1       7.457   6.425   1.504  1.00  0.00    -0.493 OA
ATOM     22  C   UNL     1       6.906   7.444   2.340  1.00  0.00     0.278 C 
ENDBRANCH  15  21
ENDBRANCH   1  11
BRANCH   9  23
ATOM     23  C   UNL     1       2.911   2.590   2.848  1.00  0.00     0.011 A 
ATOM     24  C   UNL     1       4.093   1.879   3.134  1.00  0.00     0.096 A 
ATOM     25  C   UNL     1       2.521   3.216   3.979  1.00  0.00     0.110 A 
ATOM     26  N   UNL     1       4.388   2.078   4.402  1.00  0.00    -0.175 NA
ATOM     27  N   UNL     1       3.408   2.914   4.951  1.00  0.00    -0.285 N 
ATOM     28  H   UNL     1       3.370   3.241   5.927  1.00  0.00     0.189 HD
BRANCH  24  29
ATOM     29  C   UNL     1       4.868   1.052   2.176  1.00  0.00     0.002 A 
ATOM     30  C   UNL     1       6.260   1.118   2.163  1.00  0.00     0.013 A 
ATOM     31  C   UNL     1       4.207   0.203   1.291  1.00  0.00     0.013 A 
ATOM     32  C   UNL     1       6.977   0.348   1.271  1.00  0.00     0.040 A 
ATOM     33  C   UNL     1       4.931  -0.560   0.399  1.00  0.00     0.040 A 
ATOM     34  C   UNL     1       6.315  -0.491   0.389  1.00  0.00     0.123 A 
ATOM     35  F   UNL     1       7.021  -1.244  -0.482  1.00  0.00    -0.207 F 
ENDBRANCH  24  29
ENDBRANCH   9  23
BRANCH   8  36
ATOM     36  C   UNL     1       0.832   0.538   1.716  1.00  0.00     0.101 C 
ATOM     37  N   UNL     1       0.802  -0.595   1.795  1.00  0.00    -0.193 NA
ENDBRANCH   8  36
BRANCH   7  38
ATOM     38  N   UNL     1      -1.459   1.914   1.708  1.00  0.00    -0.369 N 
ATOM     39  H   UNL     1      -2.384   2.368   1.714  1.00  0.00     0.159 HD
ATOM     40  H   UNL     1      -1.399   0.888   1.776  1.00  0.00     0.159 HD
ENDBRANCH   7  38
TORSDOF 8
