REMARK SMILES O=S(=O)([N-]c1cc(SCc2ccc(Cl)cc2)c(O)c2ccccc12)c1cccc2ccccc12
REMARK SMILES IDX 5 1 6 2 7 3 17 4 19 5 24 6 23 7 22 8 21 9 20 10 4 11 2 12
REMARK SMILES IDX 1 13 3 14 25 15 31 16 30 17 32 18 29 19 33 20 34 21 28 22
REMARK SMILES IDX 27 23 26 24 8 25 9 26 10 27 16 28 11 29 15 30 12 31 13 32
REMARK SMILES IDX 14 33 18 34
REMARK H PARENT 18 35
REMARK Flexibility Score: inf
ROOT
ATOM      1  C   UNL     1      -0.592   5.952   1.876  1.00  0.00    -0.119 A 
ATOM      2  C   UNL     1       0.392   6.181   0.941  1.00  0.00     0.004 A 
ATOM      3  C   UNL     1       1.741   6.013   1.267  1.00  0.00     0.049 A 
ATOM      4  C   UNL     1       2.116   5.613   2.536  1.00  0.00     0.136 A 
ATOM      5  C   UNL     1       1.131   5.372   3.511  1.00  0.00     0.023 A 
ATOM      6  C   UNL     1      -0.237   5.548   3.181  1.00  0.00    -0.029 A 
ATOM      7  C   UNL     1      -1.217   5.302   4.156  1.00  0.00     0.007 A 
ATOM      8  C   UNL     1      -0.843   4.907   5.404  1.00  0.00     0.001 A 
ATOM      9  C   UNL     1       0.502   4.738   5.730  1.00  0.00     0.001 A 
ATOM     10  C   UNL     1       1.479   4.963   4.810  1.00  0.00     0.012 A 
ENDROOT
BRANCH   1  11
ATOM     11  N   UNL     1      -1.935   6.124   1.537  1.00  0.00    -0.572 NA
BRANCH  11  12
ATOM     12  S   UNL     1      -2.461   5.737   0.015  1.00  0.00     0.123 S 
ATOM     13  O   UNL     1      -1.623   6.438  -0.894  1.00  0.00    -0.240 OA
ATOM     14  O   UNL     1      -3.874   5.890   0.022  1.00  0.00    -0.240 OA
BRANCH  12  15
ATOM     15  C   UNL     1      -2.142   4.021  -0.226  1.00  0.00     0.060 A 
ATOM     16  C   UNL     1      -4.056   1.133   2.111  1.00  0.00     0.001 A 
ATOM     17  C   UNL     1      -3.176   0.729   1.155  1.00  0.00     0.009 A 
ATOM     18  C   UNL     1      -4.321   2.486   2.316  1.00  0.00     0.001 A 
ATOM     19  C   UNL     1      -2.519   1.688   0.363  1.00  0.00    -0.017 A 
ATOM     20  C   UNL     1      -3.708   3.442   1.566  1.00  0.00     0.010 A 
ATOM     21  C   UNL     1      -2.793   3.063   0.569  1.00  0.00    -0.001 A 
ATOM     22  C   UNL     1      -1.610   1.308  -0.638  1.00  0.00     0.009 A 
ATOM     23  C   UNL     1      -0.997   2.265  -1.389  1.00  0.00     0.002 A 
ATOM     24  C   UNL     1      -1.262   3.617  -1.183  1.00  0.00     0.019 A 
ENDBRANCH  12  15
ENDBRANCH  11  12
ENDBRANCH   1  11
BRANCH   3  25
ATOM     25  S   UNL     1       2.976   6.314   0.048  1.00  0.00    -0.118 SA
BRANCH  25  26
ATOM     26  C   UNL     1       2.032   6.804  -1.422  1.00  0.00     0.110 C 
BRANCH  26  27
ATOM     27  C   UNL     1       2.982   7.094  -2.556  1.00  0.00    -0.038 A 
ATOM     28  C   UNL     1       3.358   6.082  -3.419  1.00  0.00     0.006 A 
ATOM     29  C   UNL     1       3.473   8.374  -2.735  1.00  0.00     0.006 A 
ATOM     30  C   UNL     1       4.229   6.347  -4.458  1.00  0.00     0.021 A 
ATOM     31  C   UNL     1       4.348   8.639  -3.771  1.00  0.00     0.021 A 
ATOM     32  C   UNL     1       4.724   7.627  -4.635  1.00  0.00     0.041 A 
ATOM     33  Cl  UNL     1       5.819   7.961  -5.941  1.00  0.00    -0.084 Cl
ENDBRANCH  26  27
ENDBRANCH  25  26
ENDBRANCH   3  25
BRANCH   4  34
ATOM     34  O   UNL     1       3.433   5.452   2.841  1.00  0.00    -0.506 OA
ATOM     35  H   UNL     1       3.850   6.325   2.631  1.00  0.00     0.293 HD
ENDBRANCH   4  34
TORSDOF 7
