REMARK SMILES CC(C)(C)c1cc(CCC(=O)NCc2nnc3n2-c2ccccc2CC3)cc(C(C)(C)C)c1O
REMARK SMILES IDX 9 1 8 2 7 3 5 4 33 5 6 6 28 7 27 8 2 9 1 10 3 11 4 12 34 13
REMARK SMILES IDX 29 15 30 16 31 17 32 18 10 19 11 20 12 21 13 23 14 24 18 25
REMARK SMILES IDX 15 26 17 27 19 28 16 29 26 30 24 31 20 32 25 33 23 34 21 35
REMARK SMILES IDX 22 36
REMARK H PARENT 34 14 12 22
REMARK Flexibility Score: inf
ROOT
ATOM      1  C   UNL     1       2.462   0.920  -0.017  1.00  0.00     0.105 C 
ENDROOT
BRANCH   1   2
ATOM      2  C   UNL     1       3.611   1.930  -0.022  1.00  0.00     0.045 C 
BRANCH   2   3
ATOM      3  C   UNL     1       4.926   1.194  -0.039  1.00  0.00    -0.047 A 
ATOM      4  C   UNL     1       6.723   0.189  -1.262  1.00  0.00    -0.000 A 
ATOM      5  C   UNL     1       7.341  -0.156  -0.069  1.00  0.00     0.123 A 
ATOM      6  C   UNL     1       5.517   0.864  -1.244  1.00  0.00     0.011 A 
ATOM      7  C   UNL     1       6.746   0.176   1.139  1.00  0.00    -0.000 A 
ATOM      8  C   UNL     1       5.543   0.856   1.152  1.00  0.00     0.011 A 
BRANCH   4   9
ATOM      9  C   UNL     1       7.367  -0.170  -2.576  1.00  0.00    -0.010 C 
ATOM     10  C   UNL     1       6.486   0.323  -3.727  1.00  0.00     0.016 C 
ATOM     11  C   UNL     1       8.743   0.491  -2.668  1.00  0.00     0.016 C 
ATOM     12  C   UNL     1       7.523  -1.689  -2.669  1.00  0.00     0.016 C 
ENDBRANCH   4   9
BRANCH   5  13
ATOM     13  O   UNL     1       8.526  -0.820  -0.084  1.00  0.00    -0.507 OA
ATOM     14  H   UNL     1       9.132  -0.247  -0.617  1.00  0.00     0.293 HD
ENDBRANCH   5  13
BRANCH   7  15
ATOM     15  C   UNL     1       7.414  -0.197   2.437  1.00  0.00    -0.010 C 
ATOM     16  C   UNL     1       6.556   0.282   3.610  1.00  0.00     0.016 C 
ATOM     17  C   UNL     1       7.573  -1.718   2.510  1.00  0.00     0.016 C 
ATOM     18  C   UNL     1       8.792   0.463   2.510  1.00  0.00     0.016 C 
ENDBRANCH   7  15
ENDBRANCH   2   3
ENDBRANCH   1   2
BRANCH   1  19
ATOM     19  C   UNL     1       1.147   1.655   0.000  1.00  0.00     0.220 C 
ATOM     20  O   UNL     1       1.130   2.868   0.007  1.00  0.00    -0.275 OA
ATOM     21  N   UNL     1      -0.011   0.966   0.007  1.00  0.00    -0.349 N 
ATOM     22  H   UNL     1       0.003  -0.064   0.006  1.00  0.00     0.163 HD
BRANCH  21  23
ATOM     23  C   UNL     1      -1.290   1.681   0.017  1.00  0.00     0.194 C 
BRANCH  23  24
ATOM     24  C   UNL     1      -2.422   0.686   0.017  1.00  0.00     0.157 A 
ATOM     25  N   UNL     1      -3.032   0.168  -1.065  1.00  0.00    -0.281 N 
ATOM     26  N   UNL     1      -3.003   0.166   1.071  1.00  0.00    -0.133 NA
ATOM     27  C   UNL     1      -3.982  -0.701  -0.588  1.00  0.00     0.138 A 
ATOM     28  C   UNL     1      -2.826   0.341  -2.436  1.00  0.00     0.052 A 
ATOM     29  N   UNL     1      -3.929  -0.654   0.703  1.00  0.00    -0.135 NA
ATOM     30  C   UNL     1      -4.863  -1.505  -1.507  1.00  0.00     0.083 C 
ATOM     31  C   UNL     1      -3.814  -0.104  -3.309  1.00  0.00    -0.023 A 
ATOM     32  C   UNL     1      -1.670   0.927  -2.924  1.00  0.00     0.027 A 
ATOM     33  C   UNL     1      -5.091  -0.711  -2.795  1.00  0.00     0.046 C 
ATOM     34  C   UNL     1      -3.616   0.020  -4.673  1.00  0.00     0.006 A 
ATOM     35  C   UNL     1      -1.486   1.053  -4.288  1.00  0.00     0.002 A 
ATOM     36  C   UNL     1      -2.457   0.594  -5.159  1.00  0.00     0.000 A 
ENDBRANCH  23  24
ENDBRANCH  21  23
ENDBRANCH   1  19
TORSDOF 8
