REMARK SMILES Cc1cccc(CN2C(=O)/C(=C\c3ccc(C(=O)NCC[N@H+]4CCCC[C@@H]4C)cc3)Sc3ccccc32)c1
REMARK SMILES IDX 13 1 14 2 15 3 16 4 29 5 30 6 12 7 8 8 9 9 37 10 11 11 10 12
REMARK SMILES IDX 32 13 36 14 31 15 33 16 35 17 34 18 7 19 6 20 1 21 2 22
REMARK SMILES IDX 38 23 3 24 4 25 5 26 17 27 18 28 19 29 20 31 21 32 22 33
REMARK SMILES IDX 27 34 23 35 26 37 28 38 24 39 25 40
REMARK H PARENT 19 30 22 36
REMARK Flexibility Score: inf
ROOT
ATOM      1  C   UNL     1       4.593  -2.386   9.463  1.00  0.00    -0.024 A 
ATOM      2  C   UNL     1       3.477  -1.892  10.151  1.00  0.00     0.009 A 
ATOM      3  C   UNL     1       2.342  -1.568   9.466  1.00  0.00     0.014 A 
ATOM      4  C   UNL     1       2.293  -1.729   8.077  1.00  0.00     0.039 A 
ATOM      5  C   UNL     1       3.404  -2.227   7.390  1.00  0.00     0.014 A 
ATOM      6  C   UNL     1       4.543  -2.546   8.072  1.00  0.00     0.009 A 
ENDROOT
BRANCH   1   7
ATOM      7  C   UNL     1       5.815  -2.735  10.199  1.00  0.00     0.029 C 
ATOM      8  N   UNL     1       5.680  -0.082  12.694  1.00  0.00    -0.302 N 
ATOM      9  C   UNL     1       5.654  -0.606  11.465  1.00  0.00     0.265 C 
ATOM     10  C   UNL     1       6.149  -0.695  13.847  1.00  0.00     0.058 A 
ATOM     11  C   UNL     1       6.255  -1.935  11.202  1.00  0.00     0.078 C 
ATOM     12  O   UNL     1       5.134   0.013  10.556  1.00  0.00    -0.268 OA
ATOM     13  C   UNL     1       7.026  -1.782  13.827  1.00  0.00     0.036 A 
ATOM     14  C   UNL     1       5.725  -0.204  15.081  1.00  0.00     0.027 A 
ATOM     15  S   UNL     1       7.577  -2.421  12.280  1.00  0.00    -0.082 SA
ATOM     16  C   UNL     1       7.462  -2.361  15.008  1.00  0.00     0.017 A 
ATOM     17  C   UNL     1       6.164  -0.783  16.253  1.00  0.00     0.002 A 
ATOM     18  C   UNL     1       7.031  -1.861  16.222  1.00  0.00     0.001 A 
BRANCH   8  19
ATOM     19  C   UNL     1       5.161   1.281  12.838  1.00  0.00     0.161 C 
BRANCH  19  20
ATOM     20  C   UNL     1       6.305   2.261  12.794  1.00  0.00    -0.028 A 
ATOM     21  C   UNL     1       8.543   4.105  15.212  1.00  0.00     0.044 C 
ATOM     22  C   UNL     1       7.923   3.613  13.930  1.00  0.00    -0.051 A 
ATOM     23  C   UNL     1       6.871   2.717  13.970  1.00  0.00     0.009 A 
ATOM     24  C   UNL     1       8.402   4.061  12.713  1.00  0.00     0.003 A 
ATOM     25  C   UNL     1       7.833   3.609  11.537  1.00  0.00     0.001 A 
ATOM     26  C   UNL     1       6.784   2.709  11.578  1.00  0.00     0.005 A 
ENDBRANCH  19  20
ENDBRANCH   8  19
ENDBRANCH   1   7
BRANCH   4  27
ATOM     27  C   UNL     1       1.065  -1.378   7.338  1.00  0.00     0.251 C 
ATOM     28  O   UNL     1       0.096  -0.950   7.935  1.00  0.00    -0.269 OA
ATOM     29  N   UNL     1       1.017  -1.532   6.000  1.00  0.00    -0.346 N 
ATOM     30  H   UNL     1       1.837  -1.895   5.493  1.00  0.00     0.164 HD
BRANCH  29  31
ATOM     31  C   UNL     1      -0.202  -1.184   5.265  1.00  0.00     0.177 C 
BRANCH  31  32
ATOM     32  C   UNL     1       0.007  -1.452   3.773  1.00  0.00     0.283 C 
BRANCH  32  33
ATOM     33  N   UNL     1      -1.215  -1.103   3.037  1.00  0.00    -0.331 N 
ATOM     34  C   UNL     1      -1.576   0.304   3.254  1.00  0.00     0.180 C 
ATOM     35  C   UNL     1      -2.322  -1.997   3.401  1.00  0.00     0.262 C 
ATOM     36  H   UNL     1      -1.028  -1.228   2.032  1.00  0.00     0.348 HD
ATOM     37  C   UNL     1      -2.764   0.670   2.361  1.00  0.00     0.065 C 
ATOM     38  C   UNL     1      -0.383   1.196   2.905  1.00  0.00     0.075 C 
ATOM     39  C   UNL     1      -3.533  -1.699   2.513  1.00  0.00     0.062 C 
ATOM     40  C   UNL     1      -3.950  -0.238   2.700  1.00  0.00     0.012 C 
ENDBRANCH  32  33
ENDBRANCH  31  32
ENDBRANCH  29  31
ENDBRANCH   4  27
TORSDOF 7
