REMARK SMILES C=CCNS(=O)(=O)c1ccc(Br)c(C(=O)NCc2ccccc2C[NH+]2CCCC2)c1
REMARK SMILES IDX 8 1 9 2 10 3 11 4 13 5 30 6 12 7 5 8 6 9 7 10 4 11 3 13 2 14
REMARK SMILES IDX 1 15 14 16 15 17 16 18 17 20 18 21 23 22 19 23 22 24 20 25
REMARK SMILES IDX 21 26 24 27 25 28 29 29 26 30 28 32 27 33
REMARK H PARENT 4 12 16 19 25 31
REMARK Flexibility Score: inf
ROOT
ATOM      1  C   UNL     1      -1.571   2.658  -1.502  1.00  0.00     0.083 A 
ATOM      2  C   UNL     1      -1.088   3.952  -1.586  1.00  0.00     0.023 A 
ATOM      3  C   UNL     1      -1.168   4.651  -2.776  1.00  0.00     0.018 A 
ATOM      4  C   UNL     1      -1.743   4.064  -3.887  1.00  0.00     0.030 A 
ATOM      5  C   UNL     1      -2.237   2.761  -3.807  1.00  0.00     0.055 A 
ATOM      6  C   UNL     1      -2.147   2.060  -2.603  1.00  0.00     0.036 A 
ATOM      7  Br  UNL     1      -1.859   5.024  -5.513  1.00  0.00    -0.050 Br
ENDROOT
BRANCH   1   8
ATOM      8  S   UNL     1      -1.456   1.774   0.019  1.00  0.00     0.240 S 
ATOM      9  O   UNL     1      -2.475   0.784  -0.009  1.00  0.00    -0.207 OA
ATOM     10  O   UNL     1      -1.369   2.749   1.049  1.00  0.00    -0.207 OA
BRANCH   8  11
ATOM     11  N   UNL     1      -0.011   0.966   0.007  1.00  0.00    -0.207 NA
ATOM     12  H   UNL     1       0.003  -0.064   0.006  1.00  0.00     0.141 HD
BRANCH  11  13
ATOM     13  C   UNL     1       1.248   1.716  -0.001  1.00  0.00     0.125 C 
BRANCH  13  14
ATOM     14  C   UNL     1       2.385   0.791   0.351  1.00  0.00    -0.019 C 
ATOM     15  C   UNL     1       3.413   0.682  -0.453  1.00  0.00     0.005 C 
ENDBRANCH  13  14
ENDBRANCH  11  13
ENDBRANCH   8  11
ENDBRANCH   1   8
BRANCH   5  16
ATOM     16  C   UNL     1      -2.853   2.126  -4.991  1.00  0.00     0.252 C 
ATOM     17  O   UNL     1      -2.930   2.739  -6.038  1.00  0.00    -0.269 OA
ATOM     18  N   UNL     1      -3.329   0.868  -4.910  1.00  0.00    -0.348 N 
ATOM     19  H   UNL     1      -3.263   0.348  -4.023  1.00  0.00     0.164 HD
BRANCH  18  20
ATOM     20  C   UNL     1      -3.939   0.238  -6.084  1.00  0.00     0.152 C 
BRANCH  20  21
ATOM     21  C   UNL     1      -4.386  -1.157  -5.731  1.00  0.00    -0.020 A 
ATOM     22  C   UNL     1      -5.574  -1.351  -5.052  1.00  0.00     0.011 A 
ATOM     23  C   UNL     1      -3.610  -2.243  -6.091  1.00  0.00     0.006 A 
ATOM     24  C   UNL     1      -5.984  -2.631  -4.728  1.00  0.00     0.010 A 
ATOM     25  C   UNL     1      -4.017  -3.522  -5.763  1.00  0.00     0.000 A 
ATOM     26  C   UNL     1      -5.206  -3.716  -5.083  1.00  0.00     0.001 A 
BRANCH  22  27
ATOM     27  C   UNL     1      -6.423  -0.167  -4.665  1.00  0.00     0.299 C 
BRANCH  27  28
ATOM     28  N   UNL     1      -7.202   0.277  -5.828  1.00  0.00    -0.331 N 
ATOM     29  C   UNL     1      -8.219   1.277  -5.434  1.00  0.00     0.262 C 
ATOM     30  C   UNL     1      -7.957  -0.853  -6.427  1.00  0.00     0.262 C 
ATOM     31  H   UNL     1      -6.525   0.673  -6.496  1.00  0.00     0.348 HD
ATOM     32  C   UNL     1      -9.445   1.054  -6.338  1.00  0.00     0.067 C 
ATOM     33  C   UNL     1      -9.071  -0.145  -7.238  1.00  0.00     0.067 C 
ENDBRANCH  27  28
ENDBRANCH  22  27
ENDBRANCH  20  21
ENDBRANCH  18  20
ENDBRANCH   5  16
TORSDOF 9
