REMARK SMILES Nc1ncnc2[nH]c(SCc3c(Br)ccc4nsnc34)nc12
REMARK SMILES IDX 9 1 10 2 11 3 15 4 16 5 14 6 20 7 17 8 12 9 19 10 18 11
REMARK SMILES IDX 13 12 8 13 21 14 7 15 22 16 6 17 2 19 5 20 3 21 4 22 1 23
REMARK H PARENT 7 18 1 24 1 25
REMARK Flexibility Score: inf
ROOT
ATOM      1  S   UNL     1      -3.065   1.439   1.760  1.00  0.00    -0.083 SA
ENDROOT
BRANCH   1   2
ATOM      2  C   UNL     1      -2.527   1.668   0.047  1.00  0.00     0.117 C 
BRANCH   2   3
ATOM      3  C   UNL     1      -1.123   2.215   0.030  1.00  0.00     0.006 A 
ATOM      4  C   UNL     1       1.469   3.306   0.006  1.00  0.00     0.033 A 
ATOM      5  C   UNL     1       1.330   1.894  -0.001  1.00  0.00     0.105 A 
ATOM      6  C   UNL     1       0.368   4.096   0.020  1.00  0.00     0.018 A 
ATOM      7  C   UNL     1      -0.016   1.327   0.009  1.00  0.00     0.109 A 
ATOM      8  N   UNL     1       2.269   0.951  -0.015  1.00  0.00    -0.173 NA
ATOM      9  C   UNL     1      -0.918   3.554   0.029  1.00  0.00     0.024 A 
ATOM     10  N   UNL     1       0.002  -0.004   0.002  1.00  0.00    -0.173 NA
ATOM     11  S   UNL     1       1.512  -0.421  -0.015  1.00  0.00     0.069 S 
ATOM     12  Br  UNL     1      -2.409   4.717   0.048  1.00  0.00    -0.050 Br
ENDBRANCH   2   3
ENDBRANCH   1   2
BRANCH   1  13
ATOM     13  C   UNL     1      -4.688   0.809   1.490  1.00  0.00     0.168 A 
ATOM     14  N   UNL     1      -5.234   0.610   0.315  1.00  0.00    -0.217 NA
ATOM     15  N   UNL     1      -5.568   0.450   2.475  1.00  0.00    -0.317 N 
ATOM     16  C   UNL     1      -6.488   0.119   0.478  1.00  0.00     0.151 A 
ATOM     17  C   UNL     1      -6.719   0.014   1.860  1.00  0.00     0.163 A 
ATOM     18  H   UNL     1      -5.399   0.497   3.490  1.00  0.00     0.170 HD
ATOM     19  C   UNL     1      -7.514  -0.271  -0.397  1.00  0.00     0.155 A 
ATOM     20  N   UNL     1      -7.890  -0.446   2.286  1.00  0.00    -0.217 NA
ATOM     21  N   UNL     1      -8.653  -0.720   0.121  1.00  0.00    -0.217 NA
ATOM     22  C   UNL     1      -8.824  -0.801   1.428  1.00  0.00     0.226 A 
BRANCH  19  23
ATOM     23  N   UNL     1      -7.343  -0.191  -1.770  1.00  0.00    -0.382 N 
ATOM     24  H   UNL     1      -6.453   0.160  -2.150  1.00  0.00     0.158 HD
ATOM     25  H   UNL     1      -8.100  -0.478  -2.407  1.00  0.00     0.158 HD
ENDBRANCH  19  23
ENDBRANCH   1  13
TORSDOF 4
