REMARK SMILES Cc1[nH]c2c(C(=O)N[C@@H](C)c3ccc(S(C)(=O)=O)cc3)cccc2c1C
REMARK SMILES IDX 9 1 10 2 8 3 6 4 7 5 5 7 26 8 25 9 24 10 2 11 4 12 23 13
REMARK SMILES IDX 3 14 1 15 22 16 21 18 11 19 20 20 12 21 19 22 13 23 14 24
REMARK SMILES IDX 15 25 17 26 18 27 16 28
REMARK H PARENT 8 6 3 17
REMARK Flexibility Score: inf
ROOT
ATOM      1  C   UNL     1      -4.799  -1.139   0.043  1.00  0.00     0.109 C 
ATOM      2  C   UNL     1      -5.270  -0.873  -1.388  1.00  0.00     0.036 C 
ENDROOT
BRANCH   1   3
ATOM      3  N   UNL     1      -3.388  -1.532   0.027  1.00  0.00    -0.345 N 
ATOM      4  C   UNL     1      -2.425  -0.588   0.023  1.00  0.00     0.253 C 
ATOM      5  O   UNL     1      -2.728   0.589   0.032  1.00  0.00    -0.269 OA
ATOM      6  H   UNL     1      -3.131  -2.529   0.020  1.00  0.00     0.164 HD
BRANCH   4   7
ATOM      7  C   UNL     1      -1.004  -0.984   0.007  1.00  0.00     0.063 A 
ATOM      8  C   UNL     1       3.641   0.941  -0.027  1.00  0.00     0.047 C 
ATOM      9  C   UNL     1       2.138   0.834  -0.014  1.00  0.00    -0.023 A 
ATOM     10  C   UNL     1       1.351  -0.403  -0.013  1.00  0.00     0.003 A 
ATOM     11  C   UNL     1       1.264   1.852  -0.000  1.00  0.00     0.016 A 
ATOM     12  C   UNL     1       0.002  -0.004   0.002  1.00  0.00     0.059 A 
ATOM     13  C   UNL     1       1.678  -1.759  -0.023  1.00  0.00     0.010 A 
ATOM     14  N   UNL     1      -0.017   1.367   0.010  1.00  0.00    -0.358 N 
ATOM     15  C   UNL     1       1.636   3.312   0.004  1.00  0.00     0.064 C 
ATOM     16  C   UNL     1       0.678  -2.710  -0.018  1.00  0.00     0.002 A 
ATOM     17  H   UNL     1      -0.868   1.946   0.021  1.00  0.00     0.166 HD
ATOM     18  C   UNL     1      -0.652  -2.332  -0.003  1.00  0.00     0.016 A 
ENDBRANCH   4   7
ENDBRANCH   1   3
BRANCH   1  19
ATOM     19  C   UNL     1      -5.622  -2.248   0.646  1.00  0.00    -0.026 A 
ATOM     20  C   UNL     1      -6.666  -1.947   1.502  1.00  0.00     0.007 A 
ATOM     21  C   UNL     1      -5.338  -3.565   0.339  1.00  0.00     0.007 A 
ATOM     22  C   UNL     1      -7.421  -2.964   2.054  1.00  0.00     0.020 A 
ATOM     23  C   UNL     1      -6.090  -4.582   0.896  1.00  0.00     0.020 A 
ATOM     24  C   UNL     1      -7.133  -4.282   1.751  1.00  0.00     0.067 A 
BRANCH  24  25
ATOM     25  S   UNL     1      -8.097  -5.578   2.455  1.00  0.00     0.175 S 
ATOM     26  O   UNL     1      -7.231  -6.705   2.472  1.00  0.00    -0.224 OA
ATOM     27  O   UNL     1      -8.604  -5.036   3.667  1.00  0.00    -0.224 OA
ATOM     28  C   UNL     1      -9.449  -5.847   1.276  1.00  0.00     0.163 C 
ENDBRANCH  24  25
ENDBRANCH   1  19
TORSDOF 4
