REMARK SMILES Cc1cc(C)c(NC(=O)c2cn(C[C@@H]3CCCC[N@H+]3CCc3ccc4c(c3)OCO4)c3ccccc23)c(C)c1
REMARK SMILES IDX 14 1 15 2 16 3 17 4 18 5 19 6 13 8 12 9 10 10 36 11 11 12
REMARK SMILES IDX 31 13 35 14 32 15 34 16 33 17 8 18 7 19 9 21 6 22 1 23 2 24
REMARK SMILES IDX 3 25 39 26 4 27 37 28 5 29 38 30 20 31 21 32 22 33 27 34
REMARK SMILES IDX 23 35 26 36 24 37 25 38 28 39 30 40 29 41
REMARK H PARENT 19 7 7 20
REMARK Flexibility Score: inf
ROOT
ATOM      1  C   UNL     1       0.916   2.897   2.812  1.00  0.00     0.204 C 
ATOM      2  C   UNL     1      -0.460   2.968   2.147  1.00  0.00     0.067 C 
ATOM      3  C   UNL     1      -1.532   2.540   3.154  1.00  0.00     0.012 C 
ATOM      4  C   UNL     1      -1.453   3.445   4.386  1.00  0.00     0.062 C 
ATOM      5  C   UNL     1      -0.048   3.361   4.987  1.00  0.00     0.262 C 
ATOM      6  N   UNL     1       0.933   3.809   3.976  1.00  0.00    -0.331 N 
ATOM      7  H   UNL     1       0.679   4.756   3.662  1.00  0.00     0.348 HD
ENDROOT
BRANCH   1   8
ATOM      8  C   UNL     1       1.988   3.344   1.816  1.00  0.00     0.187 C 
BRANCH   8   9
ATOM      9  N   UNL     1       2.058   2.384   0.712  1.00  0.00    -0.341 N 
ATOM     10  C   UNL     1       2.699   0.628  -0.494  1.00  0.00     0.065 A 
ATOM     11  C   UNL     1       1.653   1.352  -1.240  1.00  0.00     0.012 A 
ATOM     12  C   UNL     1       2.886   1.312   0.671  1.00  0.00     0.100 A 
ATOM     13  C   UNL     1       1.290   2.443  -0.433  1.00  0.00     0.049 A 
ATOM     14  C   UNL     1       1.032   1.158  -2.471  1.00  0.00     0.011 A 
ATOM     15  C   UNL     1       0.306   3.321  -0.875  1.00  0.00     0.027 A 
ATOM     16  C   UNL     1       0.063   2.041  -2.893  1.00  0.00     0.001 A 
ATOM     17  C   UNL     1      -0.296   3.119  -2.098  1.00  0.00     0.002 A 
BRANCH  10  18
ATOM     18  C   UNL     1       3.401  -0.589  -0.922  1.00  0.00     0.257 C 
ATOM     19  N   UNL     1       4.412  -1.080  -0.178  1.00  0.00    -0.321 N 
ATOM     20  H   UNL     1       4.658  -0.633   0.716  1.00  0.00     0.170 HD
ATOM     21  O   UNL     1       3.069  -1.154  -1.948  1.00  0.00    -0.269 OA
BRANCH  19  22
ATOM     22  C   UNL     1       5.127  -2.198  -0.621  1.00  0.00     0.047 A 
ATOM     23  C   UNL     1       7.311  -5.613  -1.974  1.00  0.00     0.044 C 
ATOM     24  C   UNL     1       6.541  -4.409  -1.497  1.00  0.00    -0.050 A 
ATOM     25  C   UNL     1       5.204  -4.532  -1.165  1.00  0.00     0.009 A 
ATOM     26  C   UNL     1       7.173  -3.183  -1.392  1.00  0.00     0.009 A 
ATOM     27  C   UNL     1       4.497  -3.432  -0.723  1.00  0.00    -0.027 A 
ATOM     28  C   UNL     1       6.469  -2.078  -0.955  1.00  0.00    -0.027 A 
ATOM     29  C   UNL     1       3.041  -3.568  -0.356  1.00  0.00     0.046 C 
ATOM     30  C   UNL     1       7.159  -0.742  -0.840  1.00  0.00     0.046 C 
ENDBRANCH  19  22
ENDBRANCH  10  18
ENDBRANCH   8   9
ENDBRANCH   1   8
BRANCH   6  31
ATOM     31  C   UNL     1       2.286   3.845   4.569  1.00  0.00     0.267 C 
BRANCH  31  32
ATOM     32  C   UNL     1       2.249   4.687   5.846  1.00  0.00     0.097 C 
BRANCH  32  33
ATOM     33  C   UNL     1       3.637   4.782   6.425  1.00  0.00    -0.038 A 
ATOM     34  C   UNL     1       4.440   5.865   6.120  1.00  0.00     0.054 A 
ATOM     35  C   UNL     1       4.103   3.788   7.266  1.00  0.00     0.008 A 
ATOM     36  C   UNL     1       5.716   5.954   6.652  1.00  0.00     0.166 A 
ATOM     37  C   UNL     1       5.377   3.867   7.796  1.00  0.00     0.051 A 
ATOM     38  C   UNL     1       6.187   4.950   7.495  1.00  0.00     0.165 A 
ATOM     39  O   UNL     1       6.691   6.899   6.512  1.00  0.00    -0.454 OA
ATOM     40  O   UNL     1       7.457   5.266   7.883  1.00  0.00    -0.454 OA
ATOM     41  C   UNL     1       7.607   6.670   7.599  1.00  0.00     0.468 C 
ENDBRANCH  32  33
ENDBRANCH  31  32
ENDBRANCH   6  31
TORSDOF 7
