REMARK SMILES CC(C)(C)NC(=O)COc1ccc(Cl)cc1C[NH2+]CCCSc1nnnn1-c1ccccc1
REMARK SMILES IDX 18 1 17 4 16 5 10 6 11 7 15 8 12 9 13 10 14 11 9 12 8 13
REMARK SMILES IDX 6 14 5 15 7 17 2 18 1 19 3 20 4 21 19 22 20 23 21 24 22 25
REMARK SMILES IDX 23 26 27 27 24 28 26 29 25 30 28 31 33 32 29 33 32 34 30 35
REMARK SMILES IDX 31 36
REMARK H PARENT 18 2 18 3 5 16
REMARK Flexibility Score: inf
ROOT
ATOM      1  N   UNL     1       2.982   3.999  -1.369  1.00  0.00    -0.342 N 
ATOM      2  H   UNL     1       3.144   3.040  -1.707  1.00  0.00     0.346 HD
ATOM      3  H   UNL     1       2.295   4.457  -1.984  1.00  0.00     0.346 HD
ENDROOT
BRANCH   1   4
ATOM      4  C   UNL     1       2.451   3.947  -0.000  1.00  0.00     0.301 C 
BRANCH   4   5
ATOM      5  C   UNL     1       1.158   3.173   0.008  1.00  0.00     0.050 A 
ATOM      6  C   UNL     1       1.179   1.786   0.000  1.00  0.00     0.129 A 
ATOM      7  C   UNL     1      -0.013   1.076   0.008  1.00  0.00     0.048 A 
ATOM      8  C   UNL     1      -0.050   3.844   0.022  1.00  0.00     0.034 A 
ATOM      9  C   UNL     1      -1.218   1.751   0.017  1.00  0.00     0.024 A 
ATOM     10  C   UNL     1      -1.237   3.134   0.030  1.00  0.00     0.041 A 
ATOM     11  Cl  UNL     1      -2.753   3.980   0.048  1.00  0.00    -0.084 Cl
BRANCH   6  12
ATOM     12  O   UNL     1       2.366   1.124  -0.015  1.00  0.00    -0.483 OA
BRANCH  12  13
ATOM     13  C   UNL     1       2.312  -0.304  -0.022  1.00  0.00     0.329 C 
BRANCH  13  14
ATOM     14  C   UNL     1       3.713  -0.859  -0.038  1.00  0.00     0.258 C 
ATOM     15  N   UNL     1       3.909  -2.193  -0.047  1.00  0.00    -0.349 N 
ATOM     16  H   UNL     1       3.102  -2.832  -0.043  1.00  0.00     0.164 HD
ATOM     17  O   UNL     1       4.664  -0.106  -0.043  1.00  0.00    -0.271 OA
BRANCH  15  18
ATOM     18  C   UNL     1       5.271  -2.733  -0.063  1.00  0.00     0.032 C 
ATOM     19  C   UNL     1       6.023  -2.257   1.182  1.00  0.00     0.034 C 
ATOM     20  C   UNL     1       5.213  -4.262  -0.070  1.00  0.00     0.034 C 
ATOM     21  C   UNL     1       5.999  -2.244  -1.317  1.00  0.00     0.034 C 
ENDBRANCH  15  18
ENDBRANCH  13  14
ENDBRANCH  12  13
ENDBRANCH   6  12
ENDBRANCH   4   5
ENDBRANCH   1   4
BRANCH   1  22
ATOM     22  C   UNL     1       4.245   4.748  -1.415  1.00  0.00     0.261 C 
BRANCH  22  23
ATOM     23  C   UNL     1       4.767   4.780  -2.853  1.00  0.00     0.073 C 
BRANCH  23  24
ATOM     24  C   UNL     1       6.082   5.560  -2.901  1.00  0.00     0.084 C 
BRANCH  24  25
ATOM     25  S   UNL     1       6.699   5.598  -4.602  1.00  0.00    -0.084 SA
BRANCH  25  26
ATOM     26  C   UNL     1       8.177   6.530  -4.371  1.00  0.00     0.214 A 
ATOM     27  N   UNL     1       9.072   6.873  -5.331  1.00  0.00    -0.188 N 
ATOM     28  N   UNL     1       8.623   7.019  -3.234  1.00  0.00    -0.101 NA
ATOM     29  N   UNL     1      10.067   7.607  -4.660  1.00  0.00    -0.039 NA
ATOM     30  N   UNL     1       9.729   7.646  -3.417  1.00  0.00    -0.022 NA
BRANCH  27  31
ATOM     31  C   UNL     1       9.016   6.565  -6.697  1.00  0.00     0.069 A 
ATOM     32  C   UNL     1       9.487   7.474  -7.635  1.00  0.00     0.028 A 
ATOM     33  C   UNL     1       8.495   5.348  -7.115  1.00  0.00     0.028 A 
ATOM     34  C   UNL     1       9.431   7.168  -8.981  1.00  0.00     0.002 A 
ATOM     35  C   UNL     1       8.436   5.050  -8.463  1.00  0.00     0.002 A 
ATOM     36  C   UNL     1       8.906   5.958  -9.394  1.00  0.00     0.000 A 
ENDBRANCH  27  31
ENDBRANCH  25  26
ENDBRANCH  24  25
ENDBRANCH  23  24
ENDBRANCH  22  23
ENDBRANCH   1  22
TORSDOF 12
