REMARK SMILES O=C(Cn1nnc2ccccc2c1=O)NNC(=O)c1cc(-c2ccccc2)n[nH]1
REMARK SMILES IDX 17 1 18 2 16 3 19 5 21 6 28 7 20 8 29 9 22 11 25 12 26 13
REMARK SMILES IDX 24 14 27 15 23 16 15 17 2 18 1 20 3 21 4 22 5 23 13 24 6 25
REMARK SMILES IDX 14 26 12 27 7 28 11 29 8 30 10 31 9 32
REMARK H PARENT 16 4 29 10 15 19
REMARK Flexibility Score: inf
ROOT
ATOM      1  C   UNL     1      -0.014   1.212   0.009  1.00  0.00     0.287 C 
ATOM      2  O   UNL     1       0.002  -0.004   0.002  1.00  0.00    -0.266 OA
ATOM      3  N   UNL     1      -1.191   1.870   0.018  1.00  0.00    -0.262 N 
ATOM      4  H   UNL     1      -1.205   2.900   0.024  1.00  0.00     0.191 HD
ENDROOT
BRANCH   1   5
ATOM      5  C   UNL     1       1.250   1.965   0.001  1.00  0.00     0.125 A 
ATOM      6  C   UNL     1       3.388   2.550  -0.017  1.00  0.00     0.093 A 
ATOM      7  N   UNL     1       2.640   3.633  -0.003  1.00  0.00    -0.175 NA
ATOM      8  C   UNL     1       2.527   1.438  -0.009  1.00  0.00     0.064 A 
ATOM      9  N   UNL     1       1.393   3.325   0.007  1.00  0.00    -0.272 N 
ATOM     10  H   UNL     1       0.616   4.001   0.019  1.00  0.00     0.190 HD
BRANCH   6  11
ATOM     11  C   UNL     1       4.872   2.510  -0.032  1.00  0.00     0.002 A 
ATOM     12  C   UNL     1       7.640   2.436  -0.059  1.00  0.00     0.000 A 
ATOM     13  C   UNL     1       6.918   1.256  -0.059  1.00  0.00     0.001 A 
ATOM     14  C   UNL     1       6.983   3.653  -0.045  1.00  0.00     0.001 A 
ATOM     15  C   UNL     1       5.539   1.287  -0.040  1.00  0.00     0.010 A 
ATOM     16  C   UNL     1       5.603   3.696  -0.031  1.00  0.00     0.010 A 
ENDBRANCH   6  11
ENDBRANCH   1   5
BRANCH   3  17
ATOM     17  N   UNL     1      -2.394   1.153   0.020  1.00  0.00    -0.266 N 
ATOM     18  C   UNL     1      -3.571   1.811   0.029  1.00  0.00     0.260 C 
ATOM     19  H   UNL     1      -2.380   0.123   0.014  1.00  0.00     0.191 HD
ATOM     20  O   UNL     1      -3.587   3.024   0.035  1.00  0.00    -0.271 OA
BRANCH  18  21
ATOM     21  C   UNL     1      -4.865   1.040   0.031  1.00  0.00     0.252 C 
BRANCH  21  22
ATOM     22  N   UNL     1      -5.992   1.977   0.041  1.00  0.00    -0.201 N 
ATOM     23  N   UNL     1      -6.526   2.412   1.257  1.00  0.00    -0.063 NA
ATOM     24  C   UNL     1      -6.517   2.415  -1.127  1.00  0.00     0.278 A 
ATOM     25  N   UNL     1      -7.508   3.235   1.333  1.00  0.00    -0.132 NA
ATOM     26  O   UNL     1      -6.072   2.047  -2.199  1.00  0.00    -0.267 OA
ATOM     27  C   UNL     1      -7.646   3.354  -1.050  1.00  0.00     0.069 A 
ATOM     28  C   UNL     1      -8.110   3.739   0.227  1.00  0.00     0.100 A 
ATOM     29  C   UNL     1      -8.256   3.862  -2.196  1.00  0.00     0.016 A 
ATOM     30  C   UNL     1      -9.182   4.630   0.325  1.00  0.00     0.031 A 
ATOM     31  C   UNL     1      -9.310   4.740  -2.073  1.00  0.00     0.001 A 
ATOM     32  C   UNL     1      -9.770   5.120  -0.819  1.00  0.00     0.002 A 
ENDBRANCH  21  22
ENDBRANCH  18  21
ENDBRANCH   3  17
TORSDOF 5
