REMARK SMILES CSc1sc(I)cc1/C=N/NC(=O)c1nnn(-c2nonc2N)c1-c1ccccc1
REMARK SMILES IDX 11 1 12 2 13 3 10 5 9 6 8 7 3 8 4 9 5 10 7 11 6 12 2 13 1 14
REMARK SMILES IDX 14 15 15 16 24 17 16 18 17 19 25 20 30 21 26 22 29 23 27 24
REMARK SMILES IDX 28 25 18 26 19 27 22 28 20 29 21 30 23 31
REMARK H PARENT 11 4 23 32 23 33
REMARK Flexibility Score: inf
ROOT
ATOM      1  N   UNL     1      -3.681   0.615  -2.455  1.00  0.00    -0.241 N 
ATOM      2  C   UNL     1      -2.536   0.770  -1.762  1.00  0.00     0.294 C 
ATOM      3  O   UNL     1      -1.597   0.023  -1.962  1.00  0.00    -0.265 OA
ATOM      4  H   UNL     1      -4.476   1.248  -2.286  1.00  0.00     0.194 HD
ENDROOT
BRANCH   1   5
ATOM      5  N   UNL     1      -3.790  -0.408  -3.407  1.00  0.00    -0.180 NA
ATOM      6  C   UNL     1      -4.894  -0.558  -4.076  1.00  0.00     0.143 C 
BRANCH   6   7
ATOM      7  C   UNL     1      -5.009  -1.631  -5.074  1.00  0.00     0.020 A 
ATOM      8  C   UNL     1      -3.956  -2.503  -5.328  1.00  0.00     0.070 A 
ATOM      9  S   UNL     1      -4.636  -3.564  -6.590  1.00  0.00    -0.122 S 
ATOM     10  C   UNL     1      -6.254  -2.831  -6.732  1.00  0.00     0.067 A 
ATOM     11  C   UNL     1      -6.219  -1.831  -5.830  1.00  0.00     0.037 A 
ATOM     12  I   UNL     1      -7.831  -3.392  -7.992  1.00  0.00    -0.032 I 
BRANCH   8  13
ATOM     13  S   UNL     1      -2.357  -2.548  -4.590  1.00  0.00    -0.118 SA
ATOM     14  C   UNL     1      -1.641  -3.955  -5.477  1.00  0.00     0.092 C 
ENDBRANCH   8  13
ENDBRANCH   6   7
ENDBRANCH   1   5
BRANCH   2  15
ATOM     15  C   UNL     1      -2.421   1.845  -0.762  1.00  0.00     0.180 A 
ATOM     16  N   UNL     1      -3.377   2.734  -0.447  1.00  0.00    -0.124 NA
ATOM     17  C   UNL     1      -1.304   2.116   0.020  1.00  0.00     0.110 A 
ATOM     18  N   UNL     1      -2.953   3.536   0.464  1.00  0.00    -0.059 NA
ATOM     19  N   UNL     1      -1.639   3.185   0.803  1.00  0.00    -0.187 N 
BRANCH  17  20
ATOM     20  C   UNL     1      -0.017   1.392   0.010  1.00  0.00     0.003 A 
ATOM     21  C   UNL     1       0.002  -0.004   0.002  1.00  0.00     0.010 A 
ATOM     22  C   UNL     1       1.187   2.100   0.002  1.00  0.00     0.010 A 
ATOM     23  C   UNL     1       1.208  -0.674  -0.013  1.00  0.00     0.001 A 
ATOM     24  C   UNL     1       2.385   1.417  -0.013  1.00  0.00     0.001 A 
ATOM     25  C   UNL     1       2.396   0.034  -0.021  1.00  0.00     0.000 A 
ENDBRANCH  17  20
BRANCH  19  26
ATOM     26  C   UNL     1      -0.827   3.808   1.757  1.00  0.00     0.243 A 
ATOM     27  N   UNL     1       0.392   3.465   2.062  1.00  0.00    -0.027 NA
ATOM     28  C   UNL     1      -1.206   4.954   2.588  1.00  0.00     0.215 A 
ATOM     29  O   UNL     1       0.855   4.349   3.067  1.00  0.00    -0.240 OA
ATOM     30  N   UNL     1      -0.195   5.256   3.355  1.00  0.00    -0.030 NA
BRANCH  28  31
ATOM     31  N   UNL     1      -2.433   5.608   2.563  1.00  0.00    -0.378 N 
ATOM     32  H   UNL     1      -3.122   5.237   1.894  1.00  0.00     0.158 HD
ATOM     33  H   UNL     1      -2.655   6.411   3.168  1.00  0.00     0.158 HD
ENDBRANCH  28  31
ENDBRANCH  19  26
ENDBRANCH   2  15
TORSDOF 7
