REMARK SMILES C=C(C)[C@@H]1CC[C@]2(C(=O)[O-])CC[C@]3(C)[C@H](CC[C@@H]4[C@@]5(C)CCC(=O)C(C)(C)[C@@H]5[C@@H](O)C[C@]43C)[C@@H]12
REMARK SMILES IDX 4 1 5 2 6 3 7 4 34 5 15 6 16 7 17 8 18 9 19 10 21 11 22 12
REMARK SMILES IDX 23 13 24 14 25 15 28 16 29 17 31 18 32 19 13 20 12 21 11 22
REMARK SMILES IDX 14 23 33 24 26 25 27 26 20 27 2 28 3 29 1 30 8 31 9 32 10 33
REMARK SMILES IDX 30 34
REMARK H PARENT 30 35
REMARK Flexibility Score: inf
ROOT
ATOM      1  C   UNL     1      -7.141   0.246   2.559  1.00  0.00     0.018 C 
ATOM      2  C   UNL     1      -8.537   0.093   1.899  1.00  0.00     0.009 C 
ATOM      3  C   UNL     1      -8.267  -0.261   0.410  1.00  0.00     0.014 C 
ATOM      4  C   UNL     1      -6.916   0.436   0.165  1.00  0.00     0.014 C 
ATOM      5  C   UNL     1      -6.137   0.005   1.434  1.00  0.00     0.012 C 
ATOM      6  C   UNL     1      -4.831   0.763   1.484  1.00  0.00     0.000 C 
ATOM      7  C   UNL     1      -4.050   0.460   2.762  1.00  0.00     0.005 C 
ATOM      8  C   UNL     1      -2.740   1.260   2.769  1.00  0.00     0.005 C 
ATOM      9  C   UNL     1      -1.921   0.893   1.534  1.00  0.00     0.002 C 
ATOM     10  C   UNL     1      -0.508   1.470   1.598  1.00  0.00    -0.023 C 
ATOM     11  C   UNL     1       0.213   0.766   2.767  1.00  0.00     0.015 C 
ATOM     12  C   UNL     1       1.586   1.391   2.972  1.00  0.00     0.077 C 
ATOM     13  C   UNL     1       2.353   1.454   1.684  1.00  0.00     0.138 C 
ATOM     14  O   UNL     1       3.578   1.445   1.734  1.00  0.00    -0.299 OA
ATOM     15  C   UNL     1       1.706   1.533   0.325  1.00  0.00     0.029 C 
ATOM     16  C   UNL     1       0.251   1.114   0.321  1.00  0.00     0.037 C 
ATOM     17  C   UNL     1      -0.510   1.613  -0.904  1.00  0.00     0.119 C 
ATOM     18  C   UNL     1      -1.859   0.878  -0.971  1.00  0.00     0.039 C 
ATOM     19  C   UNL     1      -2.693   1.212   0.265  1.00  0.00    -0.021 C 
ATOM     20  C   UNL     1      -3.997   0.394   0.249  1.00  0.00    -0.024 C 
ATOM     21  C   UNL     1      -4.762   0.632  -1.048  1.00  0.00     0.008 C 
ATOM     22  C   UNL     1      -6.143  -0.042  -1.045  1.00  0.00     0.014 C 
ATOM     23  C   UNL     1      -3.650  -1.100   0.295  1.00  0.00     0.012 C 
ATOM     24  C   UNL     1      -3.074   2.699   0.195  1.00  0.00     0.012 C 
ATOM     25  C   UNL     1       2.500   0.559  -0.582  1.00  0.00     0.020 C 
ATOM     26  C   UNL     1       1.906   2.943  -0.244  1.00  0.00     0.020 C 
ATOM     27  C   UNL     1      -0.515   2.966   1.875  1.00  0.00     0.012 C 
ENDROOT
BRANCH   1  28
ATOM     28  C   UNL     1      -6.980  -0.803   3.633  1.00  0.00    -0.077 C 
ATOM     29  C   UNL     1      -7.092  -2.264   3.282  1.00  0.00     0.039 C 
ATOM     30  C   UNL     1      -6.743  -0.443   4.870  1.00  0.00     0.008 C 
ENDBRANCH   1  28
BRANCH   4  31
ATOM     31  C   UNL     1      -7.140   1.924   0.107  1.00  0.00     0.048 C 
ATOM     32  O   UNL     1      -6.720   2.633   0.991  1.00  0.00    -0.550 OA
ATOM     33  O   UNL     1      -7.807   2.463  -0.925  1.00  0.00    -0.550 OA
ENDBRANCH   4  31
BRANCH  17  34
ATOM     34  O   UNL     1       0.200   1.307  -2.108  1.00  0.00    -0.393 OA
ATOM     35  H   UNL     1       0.319   0.326  -2.169  1.00  0.00     0.210 HD
ENDBRANCH  17  34
TORSDOF 3
