REMARK SMILES COC(=O)[C@@H]1C[C@H](NC(=O)c2[nH]c3ccc(Cl)cc3c2C)CN1Cc1cc(F)ccc1F
REMARK SMILES IDX 7 1 6 2 5 3 22 4 23 5 8 6 9 7 10 8 11 10 21 11 20 12 19 13
REMARK SMILES IDX 12 14 13 15 18 16 14 18 16 19 15 20 17 21 24 22 25 23 31 24
REMARK SMILES IDX 26 25 30 26 32 27 27 28 29 29 28 30 3 31 4 32 2 33 1 34
REMARK H PARENT 8 9 12 17
REMARK Flexibility Score: inf
ROOT
ATOM      1  C   UNL     1      -2.502   1.223   0.438  1.00  0.00     0.098 C 
ATOM      2  C   UNL     1      -3.825   1.897   0.887  1.00  0.00     0.057 C 
ATOM      3  C   UNL     1      -4.855   1.345  -0.122  1.00  0.00     0.170 C 
ATOM      4  C   UNL     1      -2.672   1.192  -1.101  1.00  0.00     0.110 C 
ATOM      5  N   UNL     1      -4.104   0.897  -1.306  1.00  0.00    -0.284 NA
ENDROOT
BRANCH   1   6
ATOM      6  N   UNL     1      -1.343   2.034   0.822  1.00  0.00    -0.347 N 
ATOM      7  C   UNL     1      -0.140   1.451   0.995  1.00  0.00     0.268 C 
ATOM      8  O   UNL     1      -0.017   0.252   0.833  1.00  0.00    -0.268 OA
ATOM      9  H   UNL     1      -1.448   3.049   0.959  1.00  0.00     0.164 HD
BRANCH   7  10
ATOM     10  C   UNL     1       1.024   2.266   1.374  1.00  0.00     0.108 A 
ATOM     11  C   UNL     1       2.728   0.362   1.441  1.00  0.00     0.047 C 
ATOM     12  C   UNL     1       2.283   1.796   1.572  1.00  0.00    -0.013 A 
ATOM     13  C   UNL     1       3.103   2.896   1.922  1.00  0.00     0.005 A 
ATOM     14  N   UNL     1       1.012   3.632   1.580  1.00  0.00    -0.350 N 
ATOM     15  C   UNL     1       2.280   4.038   1.924  1.00  0.00     0.046 A 
ATOM     16  C   UNL     1       4.464   3.020   2.234  1.00  0.00     0.031 A 
ATOM     17  H   UNL     1       0.189   4.245   1.491  1.00  0.00     0.167 HD
ATOM     18  C   UNL     1       2.830   5.278   2.237  1.00  0.00     0.028 A 
ATOM     19  C   UNL     1       4.981   4.247   2.538  1.00  0.00     0.041 A 
ATOM     20  C   UNL     1       4.170   5.376   2.540  1.00  0.00     0.022 A 
ATOM     21  Cl  UNL     1       6.666   4.398   2.925  1.00  0.00    -0.084 Cl
ENDBRANCH   7  10
ENDBRANCH   1   6
BRANCH   5  22
ATOM     22  C   UNL     1      -4.602   1.591  -2.522  1.00  0.00     0.124 C 
BRANCH  22  23
ATOM     23  C   UNL     1      -4.136   0.846  -3.745  1.00  0.00     0.005 A 
ATOM     24  C   UNL     1      -2.819   0.947  -4.159  1.00  0.00     0.127 A 
ATOM     25  C   UNL     1      -5.026   0.064  -4.458  1.00  0.00     0.047 A 
ATOM     26  C   UNL     1      -2.391   0.259  -5.281  1.00  0.00     0.042 A 
ATOM     27  F   UNL     1      -1.951   1.715  -3.465  1.00  0.00    -0.207 F 
ATOM     28  C   UNL     1      -4.598  -0.621  -5.583  1.00  0.00     0.123 A 
ATOM     29  C   UNL     1      -3.280  -0.523  -5.994  1.00  0.00     0.042 A 
ATOM     30  F   UNL     1      -5.468  -1.385  -6.280  1.00  0.00    -0.207 F 
ENDBRANCH  22  23
ENDBRANCH   5  22
BRANCH   3  31
ATOM     31  C   UNL     1      -5.836   2.427  -0.495  1.00  0.00     0.323 C 
ATOM     32  O   UNL     1      -5.471   3.375  -1.149  1.00  0.00    -0.250 OA
BRANCH  31  33
ATOM     33  O   UNL     1      -7.116   2.336  -0.101  1.00  0.00    -0.468 OA
ATOM     34  C   UNL     1      -8.005   3.414  -0.497  1.00  0.00     0.282 C 
ENDBRANCH  31  33
ENDBRANCH   3  31
TORSDOF 6
