REMARK SMILES Cc1ccc(N(C(=O)Cc2cccs2)[C@@H](C(=O)NC2CCCCC2)c2ccc(O)cc2)cc1
REMARK SMILES IDX 6 1 5 2 1 3 2 4 33 5 3 6 32 7 4 8 15 9 25 10 31 11 26 12
REMARK SMILES IDX 30 13 27 14 28 15 29 16 16 18 17 19 18 20 19 22 24 23 20 24
REMARK SMILES IDX 23 25 21 26 22 27 7 28 8 29 9 30 10 31 14 32 11 33 13 34
REMARK SMILES IDX 12 35
REMARK H PARENT 29 17 18 21
REMARK Flexibility Score: inf
ROOT
ATOM      1  N   UNL     1      -2.359   3.902  -1.895  1.00  0.00    -0.295 N 
ENDROOT
BRANCH   1   2
ATOM      2  C   UNL     1      -1.779   4.903  -1.108  1.00  0.00     0.045 A 
ATOM      3  C   UNL     1      -0.009   7.963   1.294  1.00  0.00     0.044 C 
ATOM      4  C   UNL     1      -0.633   6.884   0.447  1.00  0.00    -0.051 A 
ATOM      5  C   UNL     1      -0.523   6.938  -0.930  1.00  0.00     0.005 A 
ATOM      6  C   UNL     1      -1.315   5.842   1.049  1.00  0.00     0.005 A 
ATOM      7  C   UNL     1      -1.090   5.948  -1.709  1.00  0.00     0.026 A 
ATOM      8  C   UNL     1      -1.888   4.852   0.275  1.00  0.00     0.026 A 
ENDBRANCH   1   2
BRANCH   1   9
ATOM      9  C   UNL     1      -3.558   4.192  -2.685  1.00  0.00     0.210 C 
BRANCH   9  10
ATOM     10  C   UNL     1      -3.874   5.663  -2.595  1.00  0.00    -0.015 A 
ATOM     11  C   UNL     1      -3.986   6.417  -3.749  1.00  0.00     0.010 A 
ATOM     12  C   UNL     1      -4.057   6.255  -1.359  1.00  0.00     0.010 A 
ATOM     13  C   UNL     1      -4.277   7.765  -3.669  1.00  0.00     0.046 A 
ATOM     14  C   UNL     1      -4.342   7.605  -1.274  1.00  0.00     0.046 A 
ATOM     15  C   UNL     1      -4.455   8.363  -2.430  1.00  0.00     0.115 A 
BRANCH  15  16
ATOM     16  O   UNL     1      -4.741   9.689  -2.349  1.00  0.00    -0.508 OA
ATOM     17  H   UNL     1      -4.032  10.068  -1.772  1.00  0.00     0.293 HD
ENDBRANCH  15  16
ENDBRANCH   9  10
BRANCH   9  18
ATOM     18  C   UNL     1      -4.719   3.395  -2.148  1.00  0.00     0.248 C 
ATOM     19  O   UNL     1      -4.560   2.657  -1.199  1.00  0.00    -0.272 OA
ATOM     20  N   UNL     1      -5.933   3.503  -2.722  1.00  0.00    -0.351 N 
ATOM     21  H   UNL     1      -6.068   4.130  -3.528  1.00  0.00     0.163 HD
BRANCH  20  22
ATOM     22  C   UNL     1      -7.061   2.728  -2.201  1.00  0.00     0.082 C 
ATOM     23  C   UNL     1      -8.372   3.435  -2.553  1.00  0.00     0.025 C 
ATOM     24  C   UNL     1      -7.053   1.331  -2.824  1.00  0.00     0.025 C 
ATOM     25  C   UNL     1      -9.550   2.626  -2.007  1.00  0.00     0.002 C 
ATOM     26  C   UNL     1      -8.231   0.521  -2.279  1.00  0.00     0.002 C 
ATOM     27  C   UNL     1      -9.541   1.228  -2.631  1.00  0.00     0.000 C 
ENDBRANCH  20  22
ENDBRANCH   9  18
ENDBRANCH   1   9
BRANCH   1  28
ATOM     28  C   UNL     1      -1.814   2.669  -1.925  1.00  0.00     0.233 C 
ATOM     29  O   UNL     1      -2.239   1.837  -2.699  1.00  0.00    -0.274 OA
BRANCH  28  30
ATOM     30  C   UNL     1      -0.677   2.325  -0.999  1.00  0.00     0.147 C 
BRANCH  30  31
ATOM     31  C   UNL     1      -0.291   0.881  -1.192  1.00  0.00     0.014 A 
ATOM     32  S   UNL     1      -0.913  -0.570  -0.359  1.00  0.00    -0.148 S 
ATOM     33  C   UNL     1       0.615   0.347  -2.048  1.00  0.00     0.016 A 
ATOM     34  C   UNL     1       0.076  -1.791  -1.208  1.00  0.00     0.065 A 
ATOM     35  C   UNL     1       0.802  -1.023  -2.056  1.00  0.00     0.012 A 
ENDBRANCH  30  31
ENDBRANCH  28  30
ENDBRANCH   1  28
TORSDOF 9
