REMARK SMILES O=C(NNC(=O)c1sc2cc(F)ccc2c1Cl)c1ccc2[nH]nnc2c1
REMARK SMILES IDX 2 1 1 2 3 3 18 5 19 6 20 7 26 8 21 9 25 10 22 11 24 12 23 13
REMARK SMILES IDX 4 15 5 16 6 18 7 19 8 20 16 21 9 22 15 23 17 24 10 25 14 26
REMARK SMILES IDX 11 27 13 28 12 29
REMARK H PARENT 3 4 22 14 4 17
REMARK Flexibility Score: inf
ROOT
ATOM      1  C   UNL     1       7.098   0.311  -0.066  1.00  0.00     0.269 C 
ATOM      2  O   UNL     1       6.834  -0.876  -0.070  1.00  0.00    -0.267 OA
ATOM      3  N   UNL     1       6.104   1.221  -0.051  1.00  0.00    -0.263 N 
ATOM      4  H   UNL     1       6.327   2.227  -0.048  1.00  0.00     0.191 HD
ENDROOT
BRANCH   1   5
ATOM      5  C   UNL     1       8.506   0.754  -0.078  1.00  0.00     0.043 A 
ATOM      6  C   UNL     1       8.807   2.124  -0.080  1.00  0.00     0.016 A 
ATOM      7  C   UNL     1      10.103   2.547  -0.085  1.00  0.00     0.031 A 
ATOM      8  C   UNL     1       9.528  -0.187  -0.093  1.00  0.00     0.046 A 
ATOM      9  C   UNL     1      11.141   1.619  -0.101  1.00  0.00     0.086 A 
ATOM     10  C   UNL     1      10.859   0.240  -0.104  1.00  0.00     0.113 A 
ATOM     11  N   UNL     1      12.510   1.726  -0.114  1.00  0.00    -0.258 N 
ATOM     12  N   UNL     1      12.041  -0.420  -0.120  1.00  0.00    -0.130 NA
ATOM     13  N   UNL     1      13.016   0.419  -0.126  1.00  0.00    -0.069 NA
ATOM     14  H   UNL     1      13.058   2.599  -0.116  1.00  0.00     0.192 HD
ENDBRANCH   1   5
BRANCH   3  15
ATOM     15  N   UNL     1       4.768   0.800  -0.040  1.00  0.00    -0.262 N 
ATOM     16  C   UNL     1       3.775   1.711  -0.025  1.00  0.00     0.281 C 
ATOM     17  H   UNL     1       4.545  -0.205  -0.043  1.00  0.00     0.191 HD
ATOM     18  O   UNL     1       4.038   2.899  -0.022  1.00  0.00    -0.266 OA
BRANCH  16  19
ATOM     19  C   UNL     1       2.375   1.270  -0.014  1.00  0.00     0.113 A 
ATOM     20  S   UNL     1       1.734  -0.395  -0.017  1.00  0.00    -0.128 S 
ATOM     21  C   UNL     1       1.246   2.031   0.001  1.00  0.00     0.072 A 
ATOM     22  C   UNL     1       0.002  -0.004   0.002  1.00  0.00     0.040 A 
ATOM     23  C   UNL     1      -0.017   1.411   0.010  1.00  0.00     0.012 A 
ATOM     24  Cl  UNL     1       1.365   3.763   0.009  1.00  0.00    -0.082 Cl
ATOM     25  C   UNL     1      -1.154  -0.755   0.009  1.00  0.00     0.059 A 
ATOM     26  C   UNL     1      -1.296   2.025   0.031  1.00  0.00     0.014 A 
ATOM     27  C   UNL     1      -2.380  -0.116   0.025  1.00  0.00     0.124 A 
ATOM     28  C   UNL     1      -2.427   1.275   0.033  1.00  0.00     0.040 A 
ATOM     29  F   UNL     1      -3.523  -0.837   0.032  1.00  0.00    -0.207 F 
ENDBRANCH  16  19
ENDBRANCH   3  15
TORSDOF 3
