REMARK SMILES Cc1nn(-c2ccc(F)cc2)c(Cl)c1C(=O)NC[C@@H](c1ccc(N(C)C)cc1)c1c[nH]c2ccccc12
REMARK SMILES IDX 18 1 17 2 15 3 16 4 14 6 1 7 2 8 3 9 4 10 12 11 13 12 5 13
REMARK SMILES IDX 11 14 6 15 10 16 7 17 8 18 9 19 19 20 20 21 28 22 21 23
REMARK SMILES IDX 27 24 22 25 23 26 24 27 25 28 26 29 29 30 37 31 30 32 32 33
REMARK SMILES IDX 36 34 31 35 33 36 35 37 34 39
REMARK H PARENT 17 5 31 38
REMARK Flexibility Score: inf
ROOT
ATOM      1  C   UNL     1      -3.145  -1.451  -1.225  1.00  0.00     0.129 C 
ENDROOT
BRANCH   1   2
ATOM      2  N   UNL     1      -2.661  -0.756  -2.421  1.00  0.00    -0.351 N 
ATOM      3  C   UNL     1      -3.072  -1.152  -3.642  1.00  0.00     0.256 C 
ATOM      4  O   UNL     1      -3.844  -2.085  -3.752  1.00  0.00    -0.269 OA
ATOM      5  H   UNL     1      -2.008   0.034  -2.328  1.00  0.00     0.163 HD
BRANCH   3   6
ATOM      6  C   UNL     1      -2.586  -0.453  -4.845  1.00  0.00     0.100 A 
ATOM      7  C   UNL     1      -4.448   1.356  -5.016  1.00  0.00     0.070 C 
ATOM      8  C   UNL     1      -3.187   0.664  -5.467  1.00  0.00     0.074 A 
ATOM      9  N   UNL     1      -2.461   0.992  -6.500  1.00  0.00    -0.171 NA
ATOM     10  N   UNL     1      -1.374   0.115  -6.589  1.00  0.00    -0.221 N 
ATOM     11  C   UNL     1      -1.451  -0.764  -5.572  1.00  0.00     0.145 A 
ATOM     12  Cl  UNL     1      -0.335  -2.051  -5.239  1.00  0.00    -0.061 Cl
BRANCH  10  13
ATOM     13  C   UNL     1      -0.372   0.149  -7.569  1.00  0.00     0.067 A 
ATOM     14  C   UNL     1      -0.684   0.521  -8.870  1.00  0.00     0.031 A 
ATOM     15  C   UNL     1       0.935  -0.183  -7.238  1.00  0.00     0.031 A 
ATOM     16  C   UNL     1       0.305   0.554  -9.833  1.00  0.00     0.041 A 
ATOM     17  C   UNL     1       1.920  -0.154  -8.206  1.00  0.00     0.041 A 
ATOM     18  C   UNL     1       1.607   0.217  -9.503  1.00  0.00     0.123 A 
ATOM     19  F   UNL     1       2.573   0.250 -10.447  1.00  0.00    -0.207 F 
ENDBRANCH  10  13
ENDBRANCH   3   6
ENDBRANCH   1   2
BRANCH   1  20
ATOM     20  C   UNL     1      -2.531  -0.809   0.021  1.00  0.00     0.071 C 
BRANCH  20  21
ATOM     21  C   UNL     1      -3.122  -1.442   1.254  1.00  0.00    -0.039 A 
ATOM     22  C   UNL     1      -3.808  -0.664   2.168  1.00  0.00     0.006 A 
ATOM     23  C   UNL     1      -2.980  -2.801   1.468  1.00  0.00     0.006 A 
ATOM     24  C   UNL     1      -4.351  -1.240   3.299  1.00  0.00     0.026 A 
ATOM     25  C   UNL     1      -3.515  -3.383   2.600  1.00  0.00     0.026 A 
ATOM     26  C   UNL     1      -4.206  -2.604   3.519  1.00  0.00     0.036 A 
BRANCH  26  27
ATOM     27  N   UNL     1      -4.753  -3.191   4.663  1.00  0.00    -0.378 N 
ATOM     28  C   UNL     1      -5.372  -2.352   5.692  1.00  0.00     0.143 C 
ATOM     29  C   UNL     1      -4.709  -4.645   4.832  1.00  0.00     0.143 C 
ENDBRANCH  26  27
ENDBRANCH  20  21
BRANCH  20  30
ATOM     30  C   UNL     1      -1.039  -1.022   0.012  1.00  0.00    -0.013 A 
ATOM     31  C   UNL     1      -0.010   0.021   0.006  1.00  0.00     0.003 A 
ATOM     32  C   UNL     1      -0.401  -2.203   0.009  1.00  0.00     0.087 A 
ATOM     33  C   UNL     1       1.225  -0.652  -0.000  1.00  0.00     0.046 A 
ATOM     34  C   UNL     1      -0.043   1.416   0.007  1.00  0.00     0.010 A 
ATOM     35  N   UNL     1       0.953  -2.002   0.001  1.00  0.00    -0.361 N 
ATOM     36  C   UNL     1       2.404   0.087  -0.007  1.00  0.00     0.026 A 
ATOM     37  C   UNL     1       1.127   2.123   0.001  1.00  0.00     0.001 A 
ATOM     38  H   UNL     1       1.662  -2.749  -0.003  1.00  0.00     0.166 HD
ATOM     39  C   UNL     1       2.348   1.464  -0.006  1.00  0.00     0.002 A 
ENDBRANCH  20  30
ENDBRANCH   1  20
TORSDOF 7
