REMARK SMILES Cc1onc(-c2ccccc2)c1-c1nnc(CSc2nc3c(n2-c2ccccc2)CCCC3)o1
REMARK SMILES IDX 17 1 16 2 13 3 34 4 14 5 15 6 12 7 1 8 2 9 3 10 4 11 5 12
REMARK SMILES IDX 6 13 11 14 7 15 10 16 8 17 9 18 18 19 19 20 23 21 20 22
REMARK SMILES IDX 22 23 21 24 30 25 33 26 31 27 32 28 24 29 29 30 25 31 28 32
REMARK SMILES IDX 26 33 27 34
REMARK H PARENT
REMARK Flexibility Score: inf
ROOT
ATOM      1  C   UNL     1       1.292  -4.338   2.877  1.00  0.00     0.177 C 
ENDROOT
BRANCH   1   2
ATOM      2  C   UNL     1       1.519  -5.646   3.589  1.00  0.00     0.227 A 
ATOM      3  C   UNL     1       2.254  -7.600   4.130  1.00  0.00     0.253 A 
ATOM      4  O   UNL     1       2.370  -6.618   3.213  1.00  0.00    -0.420 OA
ATOM      5  N   UNL     1       1.362  -7.207   5.009  1.00  0.00    -0.107 NA
ATOM      6  N   UNL     1       0.931  -6.039   4.684  1.00  0.00    -0.112 NA
BRANCH   3   7
ATOM      7  C   UNL     1       2.992  -8.879   4.142  1.00  0.00     0.109 A 
ATOM      8  C   UNL     1       4.418  -8.618   2.018  1.00  0.00     0.092 C 
ATOM      9  C   UNL     1       3.923  -9.335   3.247  1.00  0.00     0.147 A 
ATOM     10  O   UNL     1       4.310 -10.541   3.680  1.00  0.00    -0.360 OA
ATOM     11  N   UNL     1       3.751 -10.886   4.692  1.00  0.00    -0.079 NA
ATOM     12  C   UNL     1       2.903  -9.984   5.118  1.00  0.00     0.126 A 
BRANCH  12  13
ATOM     13  C   UNL     1       2.039 -10.055   6.321  1.00  0.00     0.004 A 
ATOM     14  C   UNL     1       1.496 -11.275   6.721  1.00  0.00     0.010 A 
ATOM     15  C   UNL     1       1.772  -8.904   7.060  1.00  0.00     0.010 A 
ATOM     16  C   UNL     1       0.693 -11.335   7.842  1.00  0.00     0.001 A 
ATOM     17  C   UNL     1       0.963  -8.975   8.175  1.00  0.00     0.001 A 
ATOM     18  C   UNL     1       0.426 -10.188   8.568  1.00  0.00     0.000 A 
ENDBRANCH  12  13
ENDBRANCH   3   7
ENDBRANCH   1   2
BRANCH   1  19
ATOM     19  S   UNL     1       2.436  -3.093   3.523  1.00  0.00    -0.078 SA
BRANCH  19  20
ATOM     20  C   UNL     1       1.963  -1.706   2.543  1.00  0.00     0.173 A 
ATOM     21  N   UNL     1       2.513  -0.457   2.610  1.00  0.00    -0.292 N 
ATOM     22  N   UNL     1       1.022  -1.698   1.625  1.00  0.00    -0.227 NA
ATOM     23  C   UNL     1       1.857   0.312   1.683  1.00  0.00     0.047 A 
ATOM     24  C   UNL     1       0.939  -0.475   1.087  1.00  0.00     0.063 A 
ATOM     25  C   UNL     1       2.080   1.765   1.351  1.00  0.00     0.056 C 
ATOM     26  C   UNL     1       0.002  -0.004   0.002  1.00  0.00     0.058 C 
ATOM     27  C   UNL     1       1.417   2.060  -0.000  1.00  0.00     0.007 C 
ATOM     28  C   UNL     1      -0.019   1.529   0.010  1.00  0.00     0.007 C 
BRANCH  21  29
ATOM     29  C   UNL     1       3.547  -0.042   3.461  1.00  0.00     0.048 A 
ATOM     30  C   UNL     1       4.817  -0.586   3.328  1.00  0.00     0.027 A 
ATOM     31  C   UNL     1       3.304   0.918   4.434  1.00  0.00     0.027 A 
ATOM     32  C   UNL     1       5.834  -0.175   4.168  1.00  0.00     0.002 A 
ATOM     33  C   UNL     1       4.323   1.320   5.275  1.00  0.00     0.002 A 
ATOM     34  C   UNL     1       5.587   0.777   5.140  1.00  0.00     0.000 A 
ENDBRANCH  21  29
ENDBRANCH  19  20
ENDBRANCH   1  19
TORSDOF 6
