REMARK SMILES O=C(c1c[nH]c2ccccc12)[C@H](NCc1ccc(C(=O)N2CCOCC2)cc1)c1ccccc1
REMARK SMILES IDX 13 1 12 3 29 4 32 5 33 6 31 7 34 8 30 9 2 10 1 11 3 12 11 13
REMARK SMILES IDX 4 14 6 15 10 16 5 17 7 18 9 19 8 21 14 22 15 23 28 24 16 25
REMARK SMILES IDX 27 26 17 27 18 28 19 29 20 30 21 31 26 32 22 33 25 34 23 35
REMARK SMILES IDX 24 36
REMARK H PARENT 13 2 5 20
REMARK Flexibility Score: inf
ROOT
ATOM      1  N   UNL     1      -5.607   3.961   1.450  1.00  0.00    -0.299 NA
ATOM      2  H   UNL     1      -4.913   4.589   1.880  1.00  0.00     0.124 HD
ENDROOT
BRANCH   1   3
ATOM      3  C   UNL     1      -6.932   4.593   1.503  1.00  0.00     0.157 C 
BRANCH   3   4
ATOM      4  C   UNL     1      -6.786   6.081   1.313  1.00  0.00    -0.023 A 
ATOM      5  C   UNL     1      -6.519   8.811   0.965  1.00  0.00     0.000 A 
ATOM      6  C   UNL     1      -5.605   8.120   1.738  1.00  0.00     0.000 A 
ATOM      7  C   UNL     1      -7.567   8.137   0.367  1.00  0.00     0.000 A 
ATOM      8  C   UNL     1      -5.741   6.756   1.915  1.00  0.00     0.006 A 
ATOM      9  C   UNL     1      -7.701   6.772   0.541  1.00  0.00     0.006 A 
ENDBRANCH   3   4
BRANCH   3  10
ATOM     10  C   UNL     1      -7.567   4.317   2.841  1.00  0.00     0.186 C 
ATOM     11  O   UNL     1      -6.877   3.991   3.785  1.00  0.00    -0.292 OA
BRANCH  10  12
ATOM     12  C   UNL     1      -8.970   4.439   2.998  1.00  0.00     0.045 A 
ATOM     13  C   UNL     1      -9.748   4.207   4.231  1.00  0.00     0.010 A 
ATOM     14  C   UNL     1      -9.883   4.803   2.031  1.00  0.00     0.095 A 
ATOM     15  C   UNL     1     -11.088   4.452   3.890  1.00  0.00     0.046 A 
ATOM     16  C   UNL     1      -9.414   3.829   5.527  1.00  0.00     0.011 A 
ATOM     17  N   UNL     1     -11.123   4.804   2.556  1.00  0.00    -0.360 N 
ATOM     18  C   UNL     1     -12.074   4.312   4.862  1.00  0.00     0.027 A 
ATOM     19  C   UNL     1     -10.405   3.695   6.476  1.00  0.00     0.001 A 
ATOM     20  H   UNL     1     -11.980   5.037   2.034  1.00  0.00     0.166 HD
ATOM     21  C   UNL     1     -11.729   3.937   6.142  1.00  0.00     0.002 A 
ENDBRANCH  10  12
ENDBRANCH   3  10
ENDBRANCH   1   3
BRANCH   1  22
ATOM     22  C   UNL     1      -5.212   3.682   0.063  1.00  0.00     0.117 C 
BRANCH  22  23
ATOM     23  C   UNL     1      -3.850   3.035   0.049  1.00  0.00    -0.034 A 
ATOM     24  C   UNL     1      -2.715   3.821  -0.029  1.00  0.00     0.006 A 
ATOM     25  C   UNL     1      -3.742   1.657   0.114  1.00  0.00     0.006 A 
ATOM     26  C   UNL     1      -1.466   3.236  -0.036  1.00  0.00     0.014 A 
ATOM     27  C   UNL     1      -2.499   1.058   0.101  1.00  0.00     0.014 A 
ATOM     28  C   UNL     1      -1.350   1.846   0.023  1.00  0.00     0.040 A 
BRANCH  28  29
ATOM     29  C   UNL     1      -0.014   1.211   0.009  1.00  0.00     0.254 C 
ATOM     30  O   UNL     1       0.165   0.160   0.592  1.00  0.00    -0.269 OA
ATOM     31  N   UNL     1       1.002   1.795  -0.656  1.00  0.00    -0.334 N 
ATOM     32  C   UNL     1       0.780   2.998  -1.475  1.00  0.00     0.148 C 
ATOM     33  C   UNL     1       2.368   1.253  -0.579  1.00  0.00     0.148 C 
ATOM     34  C   UNL     1       1.394   2.759  -2.860  1.00  0.00     0.181 C 
ATOM     35  C   UNL     1       2.903   1.097  -2.011  1.00  0.00     0.181 C 
ATOM     36  O   UNL     1       2.751   2.336  -2.707  1.00  0.00    -0.378 OA
ENDBRANCH  28  29
ENDBRANCH  22  23
ENDBRANCH   1  22
TORSDOF 7
