REMARK SMILES O=C(N[C@@H](Cc1ccccc1)[C@H](O)CN1CCCCCCCCCC[C@@H](c2ccccc2)OC1=O)O[C@H]1CO[C@H]2OCC[C@H]21
REMARK SMILES IDX 16 1 15 2 14 3 12 4 4 5 5 6 6 7 9 8 10 9 8 10 11 11 7 12
REMARK SMILES IDX 3 13 2 14 1 16 36 17 37 18 44 19 38 20 40 21 43 22 39 23
REMARK SMILES IDX 41 24 42 25 13 26 34 28 35 29 33 30 26 31 25 32 24 33 23 34
REMARK SMILES IDX 27 36 32 37 28 38 31 39 29 40 30 41 17 42 18 43 19 44 20 45
REMARK SMILES IDX 21 46 22 47
REMARK H PARENT 3 15 13 27
REMARK Flexibility Score: 70.00
ROOT
ATOM      1  C   UNL     1       0.683   6.111   1.815  1.00  0.00     0.123 C 
ENDROOT
BRANCH   1   2
ATOM      2  N   UNL     1       0.848   4.709   2.281  1.00  0.00    -0.306 N 
BRANCH   2   3
ATOM      3  C   UNL     1       1.779   4.326   3.345  1.00  0.00     0.157 C 
BRANCH   3   4
ATOM      4  C   UNL     1       1.065   4.397   4.697  1.00  0.00     0.156 C 
BRANCH   4   5
ATOM      5  C   UNL     1       2.068   4.118   5.818  1.00  0.00     0.120 C 
BRANCH   5   6
ATOM      6  C   UNL     1       2.575   2.679   5.703  1.00  0.00     0.063 C 
BRANCH   6   7
ATOM      7  C   UNL     1       3.652   2.442   6.730  1.00  0.00    -0.046 A 
ATOM      8  C   UNL     1       5.628   2.007   8.614  1.00  0.00     0.000 A 
ATOM      9  C   UNL     1       5.963   2.470   7.355  1.00  0.00     0.000 A 
ATOM     10  C   UNL     1       4.305   1.762   8.931  1.00  0.00     0.000 A 
ATOM     11  C   UNL     1       4.976   2.683   6.412  1.00  0.00     0.004 A 
ATOM     12  C   UNL     1       3.317   1.979   7.989  1.00  0.00     0.004 A 
ENDBRANCH   6   7
ENDBRANCH   5   6
BRANCH   5  13
ATOM     13  N   UNL     1       1.414   4.304   7.116  1.00  0.00    -0.316 N 
ATOM     14  C   UNL     1       2.148   4.612   8.203  1.00  0.00     0.407 C 
ATOM     15  H   UNL     1       0.393   4.198   7.197  1.00  0.00     0.167 HD
ATOM     16  O   UNL     1       3.353   4.737   8.107  1.00  0.00    -0.225 OA
BRANCH  14  17
ATOM     17  O   UNL     1       1.547   4.782   9.395  1.00  0.00    -0.443 OA
BRANCH  17  18
ATOM     18  C   UNL     1       2.401   5.113  10.523  1.00  0.00     0.212 C 
ATOM     19  C   UNL     1       1.776   4.608  11.841  1.00  0.00     0.091 C 
ATOM     20  C   UNL     1       2.483   6.645  10.708  1.00  0.00     0.209 C 
ATOM     21  C   UNL     1       1.479   5.908  12.641  1.00  0.00     0.256 C 
ATOM     22  C   UNL     1       0.377   4.029  11.537  1.00  0.00     0.041 C 
ATOM     23  O   UNL     1       1.418   6.949  11.642  1.00  0.00    -0.348 OA
ATOM     24  O   UNL     1       0.155   5.713  13.181  1.00  0.00    -0.352 OA
ATOM     25  C   UNL     1      -0.596   5.077  12.123  1.00  0.00     0.164 C 
ENDBRANCH  17  18
ENDBRANCH  14  17
ENDBRANCH   5  13
ENDBRANCH   4   5
BRANCH   4  26
ATOM     26  O   UNL     1       0.022   3.421   4.737  1.00  0.00    -0.389 OA
ATOM     27  H   UNL     1      -0.440   3.467   5.611  1.00  0.00     0.211 HD
ENDBRANCH   4  26
ENDBRANCH   3   4
ENDBRANCH   2   3
BRANCH   2  28
ATOM     28  C   UNL     1       0.049   3.807   1.625  1.00  0.00     0.410 C 
ATOM     29  O   UNL     1      -0.710   4.168   0.748  1.00  0.00    -0.224 OA
BRANCH  28  30
ATOM     30  O   UNL     1       0.129   2.510   1.978  1.00  0.00    -0.441 OA
BRANCH  30  31
ATOM     31  C   UNL     1      -0.729   1.579   1.267  1.00  0.00     0.208 C 
BRANCH  31  32
ATOM     32  C   UNL     1      -0.013   1.086   0.008  1.00  0.00     0.050 C 
BRANCH  32  33
ATOM     33  C   UNL     1      -0.753   1.593  -1.232  1.00  0.00     0.004 C 
BRANCH  33  34
ATOM     34  C   UNL     1       0.213   1.643  -2.417  1.00  0.00     0.000 CG0
ATOM     35  G   UNL     1      -0.057   2.904  -3.241  1.00  0.00     0.000 G0
ENDBRANCH  33  34
ENDBRANCH  32  33
ENDBRANCH  31  32
BRANCH  31  36
ATOM     36  C   UNL     1      -1.045   0.406   2.158  1.00  0.00    -0.008 A 
ATOM     37  C   UNL     1      -2.285  -0.200   2.089  1.00  0.00     0.007 A 
ATOM     38  C   UNL     1      -0.092  -0.069   3.040  1.00  0.00     0.007 A 
ATOM     39  C   UNL     1      -2.575  -1.277   2.906  1.00  0.00     0.000 A 
ATOM     40  C   UNL     1      -0.383  -1.143   3.860  1.00  0.00     0.000 A 
ATOM     41  C   UNL     1      -1.624  -1.748   3.792  1.00  0.00     0.000 A 
ENDBRANCH  31  36
ENDBRANCH  30  31
ENDBRANCH  28  30
ENDBRANCH   2  28
ENDBRANCH   1   2
BRANCH   1  42
ATOM     42  C   UNL     1       1.585   6.322   0.598  1.00  0.00     0.022 C 
BRANCH  42  43
ATOM     43  C   UNL     1       0.737   6.302  -0.676  1.00  0.00     0.002 C 
BRANCH  43  44
ATOM     44  C   UNL     1       1.608   5.882  -1.862  1.00  0.00     0.000 C 
BRANCH  44  45
ATOM     45  C   UNL     1       0.727   5.258  -2.946  1.00  0.00     0.000 C 
BRANCH  45  46
ATOM     46  C   UNL     1       1.172   3.815  -3.196  1.00  0.00     0.000 C 
BRANCH  46  47
ATOM     47  C   UNL     1      -0.057   2.904  -3.241  1.00  0.00     0.000 CG0
ATOM     48  G   UNL     1       0.213   1.643  -2.417  1.00  0.00     0.000 G0
ENDBRANCH  46  47
ENDBRANCH  45  46
ENDBRANCH  44  45
ENDBRANCH  43  44
ENDBRANCH  42  43
ENDBRANCH   1  42
TORSDOF 10
