REMARK SMILES CC[C@@]1(C)Cc2c(sc3nc(N)n4c(SCc5ccc(Br)cc5)nnc4c23)CO1
REMARK SMILES IDX 15 1 14 2 3 3 29 4 5 5 4 6 28 7 6 8 7 9 27 10 8 11 9 12
REMARK SMILES IDX 26 13 10 14 13 15 25 16 11 17 24 18 2 19 1 20 12 21 16 24
REMARK SMILES IDX 17 25 23 26 18 27 22 28 19 29 20 30 21 31
REMARK H PARENT 12 22 12 23
REMARK Flexibility Score: inf
ROOT
ATOM      1  S   UNL     1      -1.921  -2.039   0.012  1.00  0.00    -0.081 SA
ENDROOT
BRANCH   1   2
ATOM      2  C   UNL     1      -1.312  -0.386   0.013  1.00  0.00     0.198 A 
ATOM      3  C   UNL     1       1.004   5.912   0.473  1.00  0.00     0.070 C 
ATOM      4  O   UNL     1       2.171   6.208  -0.300  1.00  0.00    -0.369 OA
ATOM      5  C   UNL     1       0.400   4.578   0.027  1.00  0.00     0.072 C 
ATOM      6  C   UNL     1       1.388   5.826   1.952  1.00  0.00     0.043 C 
ATOM      7  C   UNL     1       3.290   5.360   0.003  1.00  0.00     0.207 C 
ATOM      8  C   UNL     1       1.516   3.536   0.008  1.00  0.00    -0.015 A 
ATOM      9  C   UNL     1       2.807   3.943  -0.001  1.00  0.00     0.037 A 
ATOM     10  C   UNL     1       1.272   2.099   0.001  1.00  0.00     0.060 A 
ATOM     11  S   UNL     1       3.755   2.448  -0.020  1.00  0.00    -0.117 S 
ATOM     12  C   UNL     1       2.413   1.284  -0.014  1.00  0.00     0.131 A 
ATOM     13  C   UNL     1      -0.017   1.373   0.010  1.00  0.00     0.175 A 
ATOM     14  N   UNL     1       2.338  -0.046  -0.021  1.00  0.00    -0.203 NA
ATOM     15  N   UNL     1       0.002  -0.004   0.002  1.00  0.00    -0.239 N 
ATOM     16  N   UNL     1      -1.272   1.748   0.029  1.00  0.00    -0.128 NA
ATOM     17  C   UNL     1       1.191  -0.682  -0.014  1.00  0.00     0.209 A 
ATOM     18  N   UNL     1      -2.034   0.711   0.026  1.00  0.00    -0.122 NA
BRANCH   3  19
ATOM     19  C   UNL     1      -0.027   7.026   0.281  1.00  0.00     0.032 C 
ATOM     20  C   UNL     1       0.574   8.360   0.726  1.00  0.00     0.007 C 
ENDBRANCH   3  19
BRANCH  17  21
ATOM     21  N   UNL     1       1.183  -2.058  -0.021  1.00  0.00    -0.369 N 
ATOM     22  H   UNL     1       0.292  -2.575  -0.015  1.00  0.00     0.159 HD
ATOM     23  H   UNL     1       2.074  -2.573  -0.033  1.00  0.00     0.159 HD
ENDBRANCH  17  21
ENDBRANCH   1   2
BRANCH   1  24
ATOM     24  C   UNL     1      -3.724  -1.843   0.031  1.00  0.00     0.113 C 
BRANCH  24  25
ATOM     25  C   UNL     1      -4.377  -3.201   0.032  1.00  0.00    -0.038 A 
ATOM     26  C   UNL     1      -4.665  -3.829   1.229  1.00  0.00     0.006 A 
ATOM     27  C   UNL     1      -4.694  -3.816  -1.165  1.00  0.00     0.006 A 
ATOM     28  C   UNL     1      -5.265  -5.074   1.230  1.00  0.00     0.016 A 
ATOM     29  C   UNL     1      -5.289  -5.064  -1.165  1.00  0.00     0.016 A 
ATOM     30  C   UNL     1      -5.577  -5.692   0.033  1.00  0.00     0.017 A 
ATOM     31  Br  UNL     1      -6.396  -7.397   0.034  1.00  0.00    -0.051 Br
ENDBRANCH  24  25
ENDBRANCH   1  24
TORSDOF 5
