REMARK SMILES COC(=O)c1c(-c2ccc(C)cc2)csc1NC(=O)CSc1nc2cc(C)ccc2[nH]1
REMARK SMILES IDX 17 1 18 2 19 3 16 5 6 6 5 7 14 8 15 9 7 10 11 11 10 12 12 13
REMARK SMILES IDX 9 14 13 15 8 16 3 17 4 18 2 19 1 20 20 21 21 22 22 23 23 24
REMARK SMILES IDX 31 25 24 26 30 27 25 29 29 30 26 31 28 32 27 33
REMARK H PARENT 17 4 31 28
REMARK Flexibility Score: inf
ROOT
ATOM      1  N   UNL     1       5.965   4.242  -0.031  1.00  0.00    -0.316 N 
ATOM      2  C   UNL     1       5.546   2.961  -0.034  1.00  0.00     0.235 C 
ATOM      3  O   UNL     1       6.357   2.059  -0.046  1.00  0.00    -0.274 OA
ATOM      4  H   UNL     1       5.276   5.008  -0.021  1.00  0.00     0.170 HD
ENDROOT
BRANCH   1   5
ATOM      5  C   UNL     1       7.320   4.529  -0.042  1.00  0.00     0.110 A 
ATOM      6  C   UNL     1       9.387   5.783  -0.054  1.00  0.00     0.009 A 
ATOM      7  C   UNL     1       7.936   5.773  -0.041  1.00  0.00     0.102 A 
ATOM      8  C   UNL     1      10.005   4.575  -0.065  1.00  0.00     0.076 A 
ATOM      9  S   UNL     1       8.650   3.421  -0.052  1.00  0.00    -0.125 S 
BRANCH   6  10
ATOM     10  C   UNL     1      10.156   7.051  -0.055  1.00  0.00    -0.017 A 
ATOM     11  C   UNL     1      12.374  10.706  -0.059  1.00  0.00     0.044 C 
ATOM     12  C   UNL     1      11.592   9.417  -0.057  1.00  0.00    -0.051 A 
ATOM     13  C   UNL     1      10.568   9.232  -0.969  1.00  0.00     0.004 A 
ATOM     14  C   UNL     1      11.902   8.424   0.855  1.00  0.00     0.004 A 
ATOM     15  C   UNL     1       9.852   8.053  -0.975  1.00  0.00     0.009 A 
ATOM     16  C   UNL     1      11.189   7.243   0.861  1.00  0.00     0.009 A 
ENDBRANCH   6  10
BRANCH   7  17
ATOM     17  C   UNL     1       7.160   7.013  -0.029  1.00  0.00     0.341 C 
ATOM     18  O   UNL     1       6.847   7.524   1.030  1.00  0.00    -0.246 OA
BRANCH  17  19
ATOM     19  O   UNL     1       6.793   7.590  -1.192  1.00  0.00    -0.465 OA
ATOM     20  C   UNL     1       6.024   8.819  -1.103  1.00  0.00     0.282 C 
ENDBRANCH  17  19
ENDBRANCH   7  17
ENDBRANCH   1   5
BRANCH   2  21
ATOM     21  C   UNL     1       4.072   2.649  -0.022  1.00  0.00     0.178 C 
BRANCH  21  22
ATOM     22  S   UNL     1       3.835   0.855  -0.029  1.00  0.00    -0.078 SA
BRANCH  22  23
ATOM     23  C   UNL     1       2.074   0.779  -0.014  1.00  0.00     0.166 A 
ATOM     24  N   UNL     1       1.276   1.818  -0.000  1.00  0.00    -0.223 NA
ATOM     25  N   UNL     1       1.338  -0.371  -0.013  1.00  0.00    -0.333 N 
ATOM     26  C   UNL     1      -0.017   1.400   0.010  1.00  0.00     0.090 A 
ATOM     27  C   UNL     1       0.002  -0.004   0.002  1.00  0.00     0.066 A 
ATOM     28  H   UNL     1       1.707  -1.333  -0.021  1.00  0.00     0.169 HD
ATOM     29  C   UNL     1      -1.242   2.071   0.030  1.00  0.00     0.034 A 
ATOM     30  C   UNL     1      -1.190  -0.713   0.010  1.00  0.00     0.028 A 
ATOM     31  C   UNL     1      -2.416   1.352   0.032  1.00  0.00    -0.049 A 
ATOM     32  C   UNL     1      -2.392  -0.035   0.025  1.00  0.00     0.006 A 
ATOM     33  C   UNL     1      -3.737   2.076   0.049  1.00  0.00     0.044 C 
ENDBRANCH  22  23
ENDBRANCH  21  22
ENDBRANCH   2  21
TORSDOF 7
