REMARK SMILES COc1ccccc1-c1cc(O)nc(N2CC[NH+](C(c3ccccc3)c3ccccc3)CC2)n1
REMARK SMILES IDX 15 1 16 2 17 3 32 4 33 5 18 6 14 8 9 9 34 10 10 11 11 12
REMARK SMILES IDX 13 13 8 14 3 15 4 16 7 17 5 18 6 19 2 20 1 21 12 22 19 24
REMARK SMILES IDX 20 25 25 26 21 27 24 28 22 29 23 30 26 31 31 32 27 33 30 34
REMARK SMILES IDX 28 35 29 36
REMARK H PARENT 18 7 12 23
REMARK Flexibility Score: inf
ROOT
ATOM      1  N   UNL     1       3.681   3.180   2.436  1.00  0.00    -0.329 N 
ATOM      2  C   UNL     1       5.028   2.594   2.432  1.00  0.00     0.181 C 
ATOM      3  C   UNL     1       5.671   2.789   3.807  1.00  0.00     0.284 C 
ATOM      4  C   UNL     1       3.480   2.743   4.837  1.00  0.00     0.284 C 
ATOM      5  C   UNL     1       2.838   2.548   3.461  1.00  0.00     0.181 C 
ATOM      6  N   UNL     1       4.825   2.130   4.826  1.00  0.00    -0.322 N 
ATOM      7  H   UNL     1       4.736   1.131   4.592  1.00  0.00     0.349 HD
ENDROOT
BRANCH   1   8
ATOM      8  C   UNL     1       3.095   3.086   1.186  1.00  0.00     0.229 A 
ATOM      9  C   UNL     1       3.186   3.532  -1.078  1.00  0.00     0.083 A 
ATOM     10  N   UNL     1       3.720   3.605   0.141  1.00  0.00    -0.212 NA
ATOM     11  C   UNL     1       1.954   2.900  -1.241  1.00  0.00     0.097 A 
ATOM     12  C   UNL     1       1.330   2.368  -0.117  1.00  0.00     0.216 A 
ATOM     13  N   UNL     1       1.921   2.483   1.067  1.00  0.00    -0.177 NA
BRANCH   9  14
ATOM     14  C   UNL     1       3.891   4.115  -2.244  1.00  0.00     0.043 A 
ATOM     15  C   UNL     1       5.124   4.753  -2.072  1.00  0.00     0.128 A 
ATOM     16  C   UNL     1       5.779   5.290  -3.170  1.00  0.00     0.047 A 
ATOM     17  C   UNL     1       3.326   4.036  -3.516  1.00  0.00     0.014 A 
ATOM     18  C   UNL     1       5.210   5.206  -4.425  1.00  0.00     0.004 A 
ATOM     19  C   UNL     1       3.987   4.580  -4.598  1.00  0.00     0.001 A 
BRANCH  15  20
ATOM     20  O   UNL     1       5.680   4.840  -0.837  1.00  0.00    -0.496 OA
ATOM     21  C   UNL     1       6.941   5.505  -0.738  1.00  0.00     0.278 C 
ENDBRANCH  15  20
ENDBRANCH   9  14
BRANCH  12  22
ATOM     22  O   UNL     1       0.131   1.745  -0.228  1.00  0.00    -0.493 OA
ATOM     23  H   UNL     1       0.280   1.029  -0.895  1.00  0.00     0.295 HD
ENDBRANCH  12  22
ENDBRANCH   1   8
BRANCH   6  24
ATOM     24  C   UNL     1       5.450   2.257   6.160  1.00  0.00     0.246 C 
BRANCH  24  25
ATOM     25  C   UNL     1       4.572   1.577   7.178  1.00  0.00     0.014 A 
ATOM     26  C   UNL     1       4.331   2.182   8.398  1.00  0.00     0.010 A 
ATOM     27  C   UNL     1       4.002   0.350   6.891  1.00  0.00     0.010 A 
ATOM     28  C   UNL     1       3.525   1.558   9.332  1.00  0.00     0.001 A 
ATOM     29  C   UNL     1       3.200  -0.276   7.827  1.00  0.00     0.001 A 
ATOM     30  C   UNL     1       2.960   0.329   9.046  1.00  0.00     0.000 A 
ENDBRANCH  24  25
BRANCH  24  31
ATOM     31  C   UNL     1       6.800   1.588   6.134  1.00  0.00     0.014 A 
ATOM     32  C   UNL     1       7.886   2.200   6.730  1.00  0.00     0.010 A 
ATOM     33  C   UNL     1       6.950   0.359   5.519  1.00  0.00     0.010 A 
ATOM     34  C   UNL     1       9.125   1.587   6.706  1.00  0.00     0.001 A 
ATOM     35  C   UNL     1       8.190  -0.252   5.491  1.00  0.00     0.001 A 
ATOM     36  C   UNL     1       9.277   0.360   6.086  1.00  0.00     0.000 A 
ENDBRANCH  24  31
ENDBRANCH   6  24
TORSDOF 7
