REMARK SMILES Cc1ccc(Cl)cc1NC(=O)CCc1c(C)nc2nc(NCc3ccc(Cl)cc3)nn2c1O
REMARK SMILES IDX 14 1 15 2 17 3 18 4 19 5 20 6 30 7 31 8 32 9 16 10 13 11
REMARK SMILES IDX 12 12 10 13 9 14 11 16 8 17 1 18 2 19 3 20 7 21 4 22 5 23
REMARK SMILES IDX 6 24 33 25 21 27 22 29 23 30 29 31 24 32 28 33 25 34 26 35
REMARK SMILES IDX 27 36
REMARK H PARENT 9 15 33 26 21 28
REMARK Flexibility Score: inf
ROOT
ATOM      1  C   UNL     1       4.624   8.259  -0.431  1.00  0.00     0.036 A 
ATOM      2  C   UNL     1       5.095   8.609  -1.649  1.00  0.00     0.050 A 
ATOM      3  N   UNL     1       6.265   9.301  -1.755  1.00  0.00    -0.216 NA
ATOM      4  C   UNL     1       6.971   9.646  -0.626  1.00  0.00     0.257 A 
ATOM      5  N   UNL     1       8.103  10.298  -0.452  1.00  0.00    -0.174 NA
ATOM      6  C   UNL     1       8.380  10.380   0.853  1.00  0.00     0.244 A 
ATOM      7  N   UNL     1       7.431   9.783   1.536  1.00  0.00    -0.123 NA
ATOM      8  N   UNL     1       6.503   9.297   0.603  1.00  0.00    -0.161 N 
ATOM      9  C   UNL     1       5.348   8.619   0.726  1.00  0.00     0.220 A 
ATOM     10  C   UNL     1       4.327   8.234  -2.890  1.00  0.00     0.067 C 
ENDROOT
BRANCH   1  11
ATOM     11  C   UNL     1       3.331   7.494  -0.308  1.00  0.00     0.053 C 
BRANCH  11  12
ATOM     12  C   UNL     1       3.631   5.997  -0.218  1.00  0.00     0.105 C 
BRANCH  12  13
ATOM     13  C   UNL     1       2.338   5.232  -0.095  1.00  0.00     0.224 C 
ATOM     14  N   UNL     1       2.357   3.888  -0.001  1.00  0.00    -0.326 N 
ATOM     15  H   UNL     1       3.255   3.389   0.074  1.00  0.00     0.169 HD
ATOM     16  O   UNL     1       1.281   5.826  -0.082  1.00  0.00    -0.275 OA
BRANCH  14  17
ATOM     17  C   UNL     1       1.156   3.170  -0.003  1.00  0.00     0.045 A 
ATOM     18  C   UNL     1       2.322   1.324   1.234  1.00  0.00     0.046 C 
ATOM     19  C   UNL     1       1.095   1.915   0.588  1.00  0.00    -0.027 A 
ATOM     20  C   UNL     1      -0.092   1.207   0.583  1.00  0.00     0.007 A 
ATOM     21  C   UNL     1       0.024   3.710  -0.598  1.00  0.00     0.047 A 
ATOM     22  C   UNL     1      -1.217   1.745  -0.014  1.00  0.00     0.021 A 
ATOM     23  C   UNL     1      -1.161   2.998  -0.599  1.00  0.00     0.043 A 
ATOM     24  Cl  UNL     1      -2.577   3.672  -1.343  1.00  0.00    -0.084 Cl
ENDBRANCH  14  17
ENDBRANCH  12  13
ENDBRANCH  11  12
ENDBRANCH   1  11
BRANCH   9  25
ATOM     25  O   UNL     1       4.931   8.314   1.829  1.00  0.00    -0.493 OA
ATOM     26  H   UNL     1       4.824   7.330   1.793  1.00  0.00     0.295 HD
ENDBRANCH   9  25
BRANCH   6  27
ATOM     27  N   UNL     1       9.500  11.002   1.401  1.00  0.00    -0.349 N 
ATOM     28  H   UNL     1       9.632  11.016   2.423  1.00  0.00     0.164 HD
BRANCH  27  29
ATOM     29  C   UNL     1      10.489  11.634   0.526  1.00  0.00     0.152 C 
BRANCH  29  30
ATOM     30  C   UNL     1      11.593  12.229   1.362  1.00  0.00    -0.029 A 
ATOM     31  C   UNL     1      12.703  11.469   1.682  1.00  0.00     0.007 A 
ATOM     32  C   UNL     1      11.498  13.535   1.804  1.00  0.00     0.007 A 
ATOM     33  C   UNL     1      13.716  12.013   2.449  1.00  0.00     0.021 A 
ATOM     34  C   UNL     1      12.508  14.079   2.576  1.00  0.00     0.021 A 
ATOM     35  C   UNL     1      13.619  13.319   2.897  1.00  0.00     0.041 A 
ATOM     36  Cl  UNL     1      14.890  14.003   3.860  1.00  0.00    -0.084 Cl
ENDBRANCH  29  30
ENDBRANCH  27  29
ENDBRANCH   6  27
TORSDOF 8
