REMARK SMILES CC(=O)N1CCN(C(=O)[C@H](C)[NH2+]C[C@H](c2ccccc2)c2c(-c3ccccc3)[nH]c3ccccc23)CC1
REMARK SMILES IDX 13 1 12 2 10 5 11 6 8 7 9 8 7 9 36 10 6 11 37 12 5 13 4 14
REMARK SMILES IDX 2 15 3 16 1 17 14 18 15 19 20 20 16 21 19 22 17 23 18 24
REMARK SMILES IDX 21 25 22 26 35 27 29 28 30 29 34 30 31 32 33 33 32 34 23 35
REMARK SMILES IDX 28 36 24 37 27 38 25 39 26 40
REMARK H PARENT 12 3 12 4 29 31
REMARK Flexibility Score: inf
ROOT
ATOM      1  C   UNL     1       1.625  -2.042   0.173  1.00  0.00     0.274 C 
ENDROOT
BRANCH   1   2
ATOM      2  N   UNL     1       1.774  -0.718   0.793  1.00  0.00    -0.335 N 
ATOM      3  H   UNL     1       1.794   0.001   0.055  1.00  0.00     0.346 HD
ATOM      4  H   UNL     1       2.663  -0.685   1.312  1.00  0.00     0.346 HD
BRANCH   2   5
ATOM      5  C   UNL     1       0.664  -0.438   1.713  1.00  0.00     0.269 C 
ATOM      6  C   UNL     1       0.973  -1.042   3.084  1.00  0.00     0.086 C 
BRANCH   5   7
ATOM      7  C   UNL     1       0.487   1.052   1.849  1.00  0.00     0.280 C 
ATOM      8  O   UNL     1       1.430   1.794   1.669  1.00  0.00    -0.268 OA
ATOM      9  N   UNL     1      -0.720   1.561   2.165  1.00  0.00    -0.334 N 
ATOM     10  C   UNL     1      -0.938   3.015   2.179  1.00  0.00     0.141 C 
ATOM     11  C   UNL     1      -1.843   0.673   2.495  1.00  0.00     0.141 C 
ATOM     12  C   UNL     1      -1.485   3.414   3.556  1.00  0.00     0.141 C 
ATOM     13  C   UNL     1      -2.388   1.073   3.877  1.00  0.00     0.141 C 
ATOM     14  N   UNL     1      -2.607   2.526   3.892  1.00  0.00    -0.339 N 
ATOM     15  C   UNL     1      -3.814   3.036   4.208  1.00  0.00     0.219 C 
ATOM     16  O   UNL     1      -3.982   4.237   4.217  1.00  0.00    -0.275 OA
ATOM     17  C   UNL     1      -4.955   2.113   4.550  1.00  0.00     0.114 C 
ENDBRANCH   5   7
ENDBRANCH   2   5
ENDBRANCH   1   2
BRANCH   1  18
ATOM     18  C   UNL     1       2.797  -2.296  -0.776  1.00  0.00     0.107 C 
BRANCH  18  19
ATOM     19  C   UNL     1       2.742  -1.313  -1.917  1.00  0.00    -0.035 A 
ATOM     20  C   UNL     1       3.720  -0.346  -2.044  1.00  0.00     0.004 A 
ATOM     21  C   UNL     1       1.715  -1.384  -2.841  1.00  0.00     0.004 A 
ATOM     22  C   UNL     1       3.670   0.556  -3.091  1.00  0.00     0.000 A 
ATOM     23  C   UNL     1       1.662  -0.479  -3.885  1.00  0.00     0.000 A 
ATOM     24  C   UNL     1       2.640   0.489  -4.011  1.00  0.00     0.000 A 
ENDBRANCH  18  19
BRANCH  18  25
ATOM     25  C   UNL     1       2.710  -3.700  -1.317  1.00  0.00    -0.001 A 
ATOM     26  C   UNL     1       3.725  -4.594  -1.410  1.00  0.00     0.051 A 
ATOM     27  C   UNL     1       1.515  -4.355  -1.847  1.00  0.00     0.004 A 
ATOM     28  N   UNL     1       3.257  -5.768  -1.953  1.00  0.00    -0.354 N 
ATOM     29  C   UNL     1       1.913  -5.650  -2.232  1.00  0.00     0.046 A 
ATOM     30  C   UNL     1       0.187  -3.955  -2.019  1.00  0.00     0.010 A 
ATOM     31  H   UNL     1       3.826  -6.609  -2.125  1.00  0.00     0.167 HD
ATOM     32  C   UNL     1       0.973  -6.516  -2.780  1.00  0.00     0.027 A 
ATOM     33  C   UNL     1      -0.719  -4.823  -2.559  1.00  0.00     0.001 A 
ATOM     34  C   UNL     1      -0.331  -6.101  -2.940  1.00  0.00     0.002 A 
BRANCH  26  35
ATOM     35  C   UNL     1       5.121  -4.345  -0.990  1.00  0.00    -0.002 A 
ATOM     36  C   UNL     1       5.830  -5.328  -0.297  1.00  0.00     0.010 A 
ATOM     37  C   UNL     1       5.737  -3.130  -1.289  1.00  0.00     0.010 A 
ATOM     38  C   UNL     1       7.132  -5.090   0.092  1.00  0.00     0.001 A 
ATOM     39  C   UNL     1       7.038  -2.902  -0.890  1.00  0.00     0.001 A 
ATOM     40  C   UNL     1       7.735  -3.881  -0.203  1.00  0.00     0.000 A 
ENDBRANCH  26  35
ENDBRANCH  18  25
ENDBRANCH   1  18
TORSDOF 7
