REMARK SMILES CC(C)[NH2+]C[C@@H](O)Cn1c2c(c3ccccc31)CCc1c-2cnn1-c1ccccc1
REMARK SMILES IDX 6 1 5 2 4 3 2 6 1 7 3 8 8 9 9 10 10 11 17 12 11 13 21 14
REMARK SMILES IDX 12 15 16 16 18 17 20 18 22 19 13 20 15 21 19 22 24 23 23 24
REMARK SMILES IDX 14 25 25 26 30 27 26 28 29 29 27 30 28 31 7 32
REMARK H PARENT 4 4 4 5 7 33
REMARK Flexibility Score: inf
ROOT
ATOM      1  C   UNL     1       4.325   3.815   1.401  1.00  0.00     0.189 C 
ENDROOT
BRANCH   1   2
ATOM      2  C   UNL     1       4.859   5.241   1.256  1.00  0.00     0.294 C 
BRANCH   2   3
ATOM      3  N   UNL     1       5.241   5.753   2.586  1.00  0.00    -0.342 N 
ATOM      4  H   UNL     1       5.968   5.145   2.989  1.00  0.00     0.346 HD
ATOM      5  H   UNL     1       4.416   5.746   3.203  1.00  0.00     0.346 HD
BRANCH   3   6
ATOM      6  C   UNL     1       5.760   7.129   2.475  1.00  0.00     0.176 C 
ATOM      7  C   UNL     1       4.593   8.118   2.499  1.00  0.00     0.075 C 
ATOM      8  C   UNL     1       6.691   7.410   3.656  1.00  0.00     0.075 C 
ENDBRANCH   3   6
ENDBRANCH   2   3
ENDBRANCH   1   2
BRANCH   1   9
ATOM      9  C   UNL     1       4.044   3.232   0.015  1.00  0.00     0.160 C 
BRANCH   9  10
ATOM     10  N   UNL     1       3.647   1.828   0.147  1.00  0.00    -0.337 N 
ATOM     11  C   UNL     1       4.499   0.765   0.132  1.00  0.00     0.056 A 
ATOM     12  C   UNL     1       2.361   1.381   0.306  1.00  0.00     0.049 A 
ATOM     13  C   UNL     1       3.797  -0.405   0.318  1.00  0.00    -0.014 A 
ATOM     14  C   UNL     1       5.963   0.680  -0.040  1.00  0.00     0.040 A 
ATOM     15  C   UNL     1       2.406  -0.035   0.413  1.00  0.00     0.003 A 
ATOM     16  C   UNL     1       1.147   2.059   0.367  1.00  0.00     0.027 A 
ATOM     17  C   UNL     1       4.457  -1.752   0.420  1.00  0.00     0.045 C 
ATOM     18  C   UNL     1       6.539  -0.552  -0.281  1.00  0.00     0.054 A 
ATOM     19  C   UNL     1       6.975   1.634  -0.006  1.00  0.00     0.146 A 
ATOM     20  C   UNL     1       1.236  -0.785   0.580  1.00  0.00     0.010 A 
ATOM     21  C   UNL     1       0.006   1.291   0.533  1.00  0.00     0.002 A 
ATOM     22  C   UNL     1       5.733  -1.815  -0.422  1.00  0.00     0.062 C 
ATOM     23  N   UNL     1       7.862  -0.357  -0.362  1.00  0.00    -0.237 N 
ATOM     24  N   UNL     1       8.116   1.014  -0.196  1.00  0.00    -0.176 NA
ATOM     25  C   UNL     1       0.054  -0.089   0.635  1.00  0.00     0.001 A 
BRANCH  23  26
ATOM     26  C   UNL     1       8.827  -1.351  -0.574  1.00  0.00     0.065 A 
ATOM     27  C   UNL     1      10.016  -1.331   0.143  1.00  0.00     0.028 A 
ATOM     28  C   UNL     1       8.594  -2.361  -1.498  1.00  0.00     0.028 A 
ATOM     29  C   UNL     1      10.965  -2.312  -0.068  1.00  0.00     0.002 A 
ATOM     30  C   UNL     1       9.549  -3.336  -1.709  1.00  0.00     0.002 A 
ATOM     31  C   UNL     1      10.732  -3.313  -0.993  1.00  0.00     0.000 A 
ENDBRANCH  23  26
ENDBRANCH   9  10
ENDBRANCH   1   9
BRANCH   1  32
ATOM     32  O   UNL     1       3.117   3.834   2.164  1.00  0.00    -0.385 OA
ATOM     33  H   UNL     1       2.443   4.393   1.702  1.00  0.00     0.211 HD
ENDBRANCH   1  32
TORSDOF 7
