REMARK SMILES Cc1cc(/C=C2\C(=O)Nc3ccc(-c4cncc(OC[C@@H]([NH3+])Cc5c[nH]c6ccccc56)c4)cc32)oc1C
REMARK SMILES IDX 20 1 19 2 18 3 14 4 15 5 33 6 16 7 17 8 13 9 5 10 6 11 7 12
REMARK SMILES IDX 35 13 9 14 8 15 10 16 34 17 11 19 12 20 4 21 1 22 2 23 37 24
REMARK SMILES IDX 3 25 36 26 38 27 21 28 23 29 24 30 32 31 25 32 27 33 31 34
REMARK SMILES IDX 26 35 28 36 30 37 29 39 22 40
REMARK H PARENT 9 18 26 38 22 41 22 42 22 43
REMARK Flexibility Score: inf
ROOT
ATOM      1  C   UNL     1       5.811   6.354   1.080  1.00  0.00     0.294 C 
ENDROOT
BRANCH   1   2
ATOM      2  O   UNL     1       4.578   5.704   0.764  1.00  0.00    -0.486 OA
BRANCH   2   3
ATOM      3  C   UNL     1       4.582   4.345   0.749  1.00  0.00     0.138 A 
ATOM      4  C   UNL     1       3.478   2.246   0.447  1.00  0.00     0.004 A 
ATOM      5  C   UNL     1       4.685   1.617   0.747  1.00  0.00     0.120 A 
ATOM      6  C   UNL     1       3.422   3.642   0.451  1.00  0.00     0.058 A 
ATOM      7  N   UNL     1       5.762   2.325   1.018  1.00  0.00    -0.260 NA
ATOM      8  C   UNL     1       5.746   3.643   1.031  1.00  0.00     0.157 A 
BRANCH   4   9
ATOM      9  C   UNL     1       2.268   1.445   0.136  1.00  0.00    -0.016 A 
ATOM     10  C   UNL     1       1.819  -3.172  -0.032  1.00  0.00     0.061 C 
ATOM     11  C   UNL     1       0.926  -2.139  -0.242  1.00  0.00     0.053 C 
ATOM     12  C   UNL     1      -0.495  -2.244  -0.598  1.00  0.00     0.256 C 
ATOM     13  C   UNL     1       1.195  -0.686  -0.158  1.00  0.00     0.012 A 
ATOM     14  N   UNL     1      -0.990  -0.999  -0.706  1.00  0.00    -0.321 N 
ATOM     15  O   UNL     1      -1.116  -3.278  -0.765  1.00  0.00    -0.269 OA
ATOM     16  C   UNL     1      -0.016  -0.042  -0.452  1.00  0.00     0.049 A 
ATOM     17  C   UNL     1       2.333   0.055   0.135  1.00  0.00     0.020 A 
ATOM     18  H   UNL     1      -1.968  -0.783  -0.947  1.00  0.00     0.170 HD
ATOM     19  C   UNL     1      -0.066   1.349  -0.447  1.00  0.00     0.027 A 
ATOM     20  C   UNL     1       1.062   2.084  -0.157  1.00  0.00     0.011 A 
BRANCH  10  21
ATOM     21  C   UNL     1       1.350  -4.498   0.073  1.00  0.00     0.128 A 
ATOM     22  C   UNL     1       1.630  -8.172   0.380  1.00  0.00     0.048 C 
ATOM     23  C   UNL     1       1.250  -6.719   0.256  1.00  0.00    -0.009 A 
ATOM     24  C   UNL     1      -0.006  -6.220   0.201  1.00  0.00     0.104 A 
ATOM     25  C   UNL     1       2.133  -5.634   0.170  1.00  0.00     0.054 A 
ATOM     26  O   UNL     1       0.057  -4.886   0.091  1.00  0.00    -0.462 OA
ATOM     27  C   UNL     1      -1.273  -7.033   0.254  1.00  0.00     0.088 C 
ENDBRANCH  10  21
ENDBRANCH   4   9
ENDBRANCH   2   3
ENDBRANCH   1   2
BRANCH   1  28
ATOM     28  C   UNL     1       5.612   7.870   1.048  1.00  0.00     0.223 C 
BRANCH  28  29
ATOM     29  C   UNL     1       6.957   8.566   1.263  1.00  0.00     0.106 C 
BRANCH  29  30
ATOM     30  C   UNL     1       6.783  10.055   1.110  1.00  0.00    -0.017 A 
ATOM     31  C   UNL     1       6.352  10.993   2.149  1.00  0.00     0.003 A 
ATOM     32  C   UNL     1       6.999  10.774  -0.003  1.00  0.00     0.087 A 
ATOM     33  C   UNL     1       6.338  12.264   1.544  1.00  0.00     0.046 A 
ATOM     34  C   UNL     1       5.991  10.857   3.491  1.00  0.00     0.010 A 
ATOM     35  N   UNL     1       6.733  12.095   0.236  1.00  0.00    -0.361 N 
ATOM     36  C   UNL     1       5.963  13.372   2.296  1.00  0.00     0.026 A 
ATOM     37  C   UNL     1       5.626  11.959   4.211  1.00  0.00     0.001 A 
ATOM     38  H   UNL     1       6.816  12.850  -0.459  1.00  0.00     0.166 HD
ATOM     39  C   UNL     1       5.611  13.214   3.619  1.00  0.00     0.002 A 
ENDBRANCH  29  30
ENDBRANCH  28  29
BRANCH  28  40
ATOM     40  N   UNL     1       4.681   8.289   2.111  1.00  0.00    -0.352 N 
ATOM     41  H   UNL     1       5.066   8.012   3.025  1.00  0.00     0.344 HD
ATOM     42  H   UNL     1       3.775   7.820   1.969  1.00  0.00     0.344 HD
ATOM     43  H   UNL     1       4.552   9.311   2.083  1.00  0.00     0.344 HD
ENDBRANCH  28  40
ENDBRANCH   1  28
TORSDOF 8
