REMARK SMILES NC(=S)N[C@@H]1O[C@@H](COC(=O)c2ccccc2)[C@@H](OC(=O)c2ccccc2)[C@@H]1OC(=O)c1ccccc1
REMARK SMILES IDX 7 1 18 2 28 3 5 4 6 5 8 6 9 7 10 8 11 9 12 10 15 11 16 12
REMARK SMILES IDX 14 13 17 14 13 15 19 16 20 17 21 18 22 19 27 20 23 21 26 22
REMARK SMILES IDX 24 23 25 24 4 25 2 27 3 28 1 29 29 32 30 33 31 34 32 35
REMARK SMILES IDX 37 36 33 37 36 38 34 39 35 40
REMARK H PARENT 4 26 1 30 1 31
REMARK Flexibility Score: inf
ROOT
ATOM      1  C   UNL     1      -0.729   1.579   1.267  1.00  0.00     0.203 C 
ATOM      2  C   UNL     1      -0.073   0.977   2.529  1.00  0.00     0.254 C 
ATOM      3  C   UNL     1      -0.134   2.122   3.566  1.00  0.00     0.269 C 
ATOM      4  C   UNL     1      -0.819   3.280   2.807  1.00  0.00     0.260 C 
ATOM      5  O   UNL     1      -0.566   3.007   1.411  1.00  0.00    -0.344 OA
ENDROOT
BRANCH   1   6
ATOM      6  C   UNL     1      -0.013   1.086   0.008  1.00  0.00     0.269 C 
BRANCH   6   7
ATOM      7  O   UNL     1      -0.715   1.567  -1.168  1.00  0.00    -0.459 OA
BRANCH   7   8
ATOM      8  C   UNL     1      -0.210   1.218  -2.367  1.00  0.00     0.338 C 
ATOM      9  O   UNL     1       0.790   0.531  -2.429  1.00  0.00    -0.246 OA
BRANCH   8  10
ATOM     10  C   UNL     1      -0.872   1.671  -3.608  1.00  0.00     0.060 A 
ATOM     11  C   UNL     1      -2.113   2.521  -5.933  1.00  0.00     0.000 A 
ATOM     12  C   UNL     1      -2.634   2.881  -4.703  1.00  0.00     0.001 A 
ATOM     13  C   UNL     1      -0.974   1.738  -6.007  1.00  0.00     0.001 A 
ATOM     14  C   UNL     1      -2.024   2.456  -3.541  1.00  0.00     0.015 A 
ATOM     15  C   UNL     1      -0.350   1.312  -4.852  1.00  0.00     0.015 A 
ENDBRANCH   8  10
ENDBRANCH   7   8
ENDBRANCH   6   7
ENDBRANCH   1   6
BRANCH   2  16
ATOM     16  O   UNL     1       1.305   0.607   2.260  1.00  0.00    -0.452 OA
BRANCH  16  17
ATOM     17  C   UNL     1       1.528  -0.653   1.840  1.00  0.00     0.338 C 
ATOM     18  O   UNL     1       0.598  -1.422   1.703  1.00  0.00    -0.246 OA
BRANCH  17  19
ATOM     19  C   UNL     1       2.906  -1.100   1.546  1.00  0.00     0.060 A 
ATOM     20  C   UNL     1       3.141  -2.406   1.111  1.00  0.00     0.015 A 
ATOM     21  C   UNL     1       3.977  -0.217   1.698  1.00  0.00     0.015 A 
ATOM     22  C   UNL     1       4.429  -2.817   0.838  1.00  0.00     0.001 A 
ATOM     23  C   UNL     1       5.261  -0.643   1.427  1.00  0.00     0.001 A 
ATOM     24  C   UNL     1       5.487  -1.938   0.996  1.00  0.00     0.000 A 
ENDBRANCH  17  19
ENDBRANCH  16  17
ENDBRANCH   2  16
BRANCH   4  25
ATOM     25  N   UNL     1      -2.259   3.284   3.075  1.00  0.00    -0.334 N 
ATOM     26  H   UNL     1      -2.762   2.394   3.200  1.00  0.00     0.165 HD
BRANCH  25  27
ATOM     27  C   UNL     1      -2.926   4.452   3.157  1.00  0.00     0.165 C 
ATOM     28  S   UNL     1      -2.090   5.931   2.949  1.00  0.00    -0.041 S 
BRANCH  27  29
ATOM     29  N   UNL     1      -4.251   4.456   3.404  1.00  0.00    -0.376 N 
ATOM     30  H   UNL     1      -4.754   3.566   3.530  1.00  0.00     0.159 HD
ATOM     31  H   UNL     1      -4.760   5.349   3.467  1.00  0.00     0.159 HD
ENDBRANCH  27  29
ENDBRANCH  25  27
ENDBRANCH   4  25
BRANCH   3  32
ATOM     32  O   UNL     1      -0.926   1.725   4.716  1.00  0.00    -0.450 OA
BRANCH  32  33
ATOM     33  C   UNL     1      -0.597   2.271   5.903  1.00  0.00     0.338 C 
ATOM     34  O   UNL     1       0.326   3.058   5.974  1.00  0.00    -0.246 OA
BRANCH  33  35
ATOM     35  C   UNL     1      -1.359   1.914   7.117  1.00  0.00     0.060 A 
ATOM     36  C   UNL     1      -1.021   2.479   8.348  1.00  0.00     0.015 A 
ATOM     37  C   UNL     1      -2.424   1.015   7.037  1.00  0.00     0.015 A 
ATOM     38  C   UNL     1      -1.737   2.141   9.478  1.00  0.00     0.001 A 
ATOM     39  C   UNL     1      -3.129   0.682   8.176  1.00  0.00     0.001 A 
ATOM     40  C   UNL     1      -2.788   1.246   9.393  1.00  0.00     0.000 A 
ENDBRANCH  33  35
ENDBRANCH  32  33
ENDBRANCH   3  32
TORSDOF 13
