REMARK SMILES Cc1ccsc1C(=O)NCc1c(C)ncc2c1CCN(C(=O)c1ccc3[nH]ccc3c1)C2
REMARK SMILES IDX 11 1 12 2 14 3 15 4 16 5 17 6 18 7 19 8 20 9 32 10 13 11
REMARK SMILES IDX 10 12 9 13 7 14 8 15 6 17 1 18 2 19 3 20 5 21 4 22 21 23
REMARK SMILES IDX 22 24 23 25 31 26 24 27 30 28 25 29 26 30 29 31 27 32 28 33
REMARK H PARENT 9 16 27 34
REMARK Flexibility Score: inf
ROOT
ATOM      1  C   UNL     1       0.642   4.886  -2.374  1.00  0.00    -0.004 A 
ATOM      2  C   UNL     1      -0.491   4.417  -3.010  1.00  0.00     0.042 A 
ATOM      3  N   UNL     1      -0.735   3.123  -3.080  1.00  0.00    -0.261 NA
ATOM      4  C   UNL     1       0.076   2.238  -2.539  1.00  0.00     0.117 A 
ATOM      5  C   UNL     1       1.232   2.635  -1.885  1.00  0.00    -0.007 A 
ATOM      6  C   UNL     1       1.528   3.979  -1.802  1.00  0.00    -0.033 A 
ATOM      7  C   UNL     1       2.763   4.509  -1.128  1.00  0.00     0.058 C 
ATOM      8  C   UNL     1       3.346   3.469  -0.172  1.00  0.00     0.125 C 
ATOM      9  N   UNL     1       3.396   2.178  -0.879  1.00  0.00    -0.334 N 
ATOM     10  C   UNL     1       2.118   1.577  -1.280  1.00  0.00     0.157 C 
ATOM     11  C   UNL     1      -1.455   5.393  -3.634  1.00  0.00     0.067 C 
ENDROOT
BRANCH   1  12
ATOM     12  C   UNL     1       0.916   6.366  -2.302  1.00  0.00     0.154 C 
BRANCH  12  13
ATOM     13  N   UNL     1       1.702   6.775  -3.469  1.00  0.00    -0.347 N 
ATOM     14  C   UNL     1       2.067   8.064  -3.618  1.00  0.00     0.261 C 
ATOM     15  O   UNL     1       1.744   8.888  -2.783  1.00  0.00    -0.268 OA
ATOM     16  H   UNL     1       1.975   6.077  -4.176  1.00  0.00     0.164 HD
BRANCH  14  17
ATOM     17  C   UNL     1       2.853   8.473  -4.785  1.00  0.00     0.095 A 
ATOM     18  C   UNL     1       3.049  10.933  -4.258  1.00  0.00     0.046 C 
ATOM     19  C   UNL     1       3.321   9.732  -5.126  1.00  0.00    -0.027 A 
ATOM     20  C   UNL     1       4.045   9.837  -6.287  1.00  0.00     0.016 A 
ATOM     21  S   UNL     1       3.452   7.480  -6.142  1.00  0.00    -0.138 S 
ATOM     22  C   UNL     1       4.257   8.725  -7.040  1.00  0.00     0.066 A 
ENDBRANCH  14  17
ENDBRANCH  12  13
ENDBRANCH   1  12
BRANCH   9  23
ATOM     23  C   UNL     1       4.569   1.571  -1.146  1.00  0.00     0.254 C 
ATOM     24  O   UNL     1       5.616   2.130  -0.881  1.00  0.00    -0.269 OA
BRANCH  23  25
ATOM     25  C   UNL     1       4.583   0.229  -1.761  1.00  0.00     0.040 A 
ATOM     26  C   UNL     1       5.642  -0.149  -2.581  1.00  0.00     0.024 A 
ATOM     27  C   UNL     1       3.527  -0.661  -1.522  1.00  0.00     0.016 A 
ATOM     28  C   UNL     1       5.645  -1.420  -3.150  1.00  0.00     0.000 A 
ATOM     29  C   UNL     1       3.525  -1.904  -2.083  1.00  0.00     0.027 A 
ATOM     30  C   UNL     1       4.578  -2.306  -2.902  1.00  0.00     0.045 A 
ATOM     31  C   UNL     1       6.569  -2.137  -4.034  1.00  0.00     0.028 A 
ATOM     32  N   UNL     1       4.847  -3.465  -3.589  1.00  0.00    -0.361 N 
ATOM     33  C   UNL     1       6.036  -3.348  -4.257  1.00  0.00     0.083 A 
ATOM     34  H   UNL     1       4.243  -4.300  -3.599  1.00  0.00     0.166 HD
ENDBRANCH  23  25
ENDBRANCH   9  23
TORSDOF 5
