REMARK SMILES O=c1c2c3c(sc2ncn1CCc1cccc(Cl)c1)C[C@@H]([NH2+]Cc1cc(C2CC2)[nH]n1)CC3
REMARK SMILES IDX 10 1 9 2 8 3 7 4 3 5 2 6 1 7 4 8 5 9 6 10 20 11 21 12 32 13
REMARK SMILES IDX 33 14 11 15 12 16 13 17 15 18 16 19 14 20 17 21 19 22 18 23
REMARK SMILES IDX 22 24 23 27 24 28 31 29 25 30 30 31 26 32 27 34 29 35 28 36
REMARK H PARENT 22 25 22 26 30 33
REMARK Flexibility Score: inf
ROOT
ATOM      1  N   UNL     1       1.601   1.359   4.185  1.00  0.00    -0.298 N 
ATOM      2  C   UNL     1       0.764   1.835   5.138  1.00  0.00     0.204 A 
ATOM      3  N   UNL     1      -0.471   2.208   4.885  1.00  0.00    -0.227 NA
ATOM      4  C   UNL     1      -0.895   2.105   3.629  1.00  0.00     0.131 A 
ATOM      5  C   UNL     1      -0.100   1.622   2.567  1.00  0.00     0.080 A 
ATOM      6  C   UNL     1       1.242   1.225   2.886  1.00  0.00     0.262 A 
ATOM      7  O   UNL     1       2.010   0.796   2.042  1.00  0.00    -0.269 OA
ATOM      8  C   UNL     1      -0.732   1.580   1.260  1.00  0.00    -0.018 A 
ATOM      9  C   UNL     1      -2.017   2.007   1.189  1.00  0.00     0.017 A 
ATOM     10  S   UNL     1      -2.441   2.480   2.847  1.00  0.00    -0.120 S 
ATOM     11  C   UNL     1      -2.889   2.065  -0.027  1.00  0.00     0.112 C 
ATOM     12  C   UNL     1      -2.239   1.220  -1.132  1.00  0.00     0.188 C 
ATOM     13  C   UNL     1      -0.757   1.595  -1.227  1.00  0.00     0.070 C 
ATOM     14  C   UNL     1      -0.013   1.086   0.008  1.00  0.00     0.044 C 
ENDROOT
BRANCH   1  15
ATOM     15  C   UNL     1       2.958   0.972   4.578  1.00  0.00     0.132 C 
BRANCH  15  16
ATOM     16  C   UNL     1       2.971  -0.504   4.980  1.00  0.00     0.057 C 
BRANCH  16  17
ATOM     17  C   UNL     1       4.367  -0.903   5.384  1.00  0.00    -0.045 A 
ATOM     18  C   UNL     1       6.047  -1.145   7.074  1.00  0.00     0.002 A 
ATOM     19  C   UNL     1       6.928  -1.635   6.128  1.00  0.00     0.020 A 
ATOM     20  C   UNL     1       4.767  -0.779   6.702  1.00  0.00     0.004 A 
ATOM     21  C   UNL     1       6.529  -1.759   4.809  1.00  0.00     0.041 A 
ATOM     22  C   UNL     1       5.246  -1.397   4.439  1.00  0.00     0.024 A 
ATOM     23  Cl  UNL     1       7.635  -2.374   3.621  1.00  0.00    -0.084 Cl
ENDBRANCH  16  17
ENDBRANCH  15  16
ENDBRANCH   1  15
BRANCH  12  24
ATOM     24  N   UNL     1      -2.899   1.495  -2.415  1.00  0.00    -0.338 N 
ATOM     25  H   UNL     1      -3.178   2.486  -2.449  1.00  0.00     0.346 HD
ATOM     26  H   UNL     1      -2.240   1.309  -3.184  1.00  0.00     0.346 HD
BRANCH  24  27
ATOM     27  C   UNL     1      -4.090   0.651  -2.586  1.00  0.00     0.320 C 
BRANCH  27  28
ATOM     28  C   UNL     1      -4.739   0.960  -3.910  1.00  0.00     0.116 A 
ATOM     29  N   UNL     1      -5.600   1.918  -4.137  1.00  0.00    -0.174 NA
ATOM     30  C   UNL     1      -4.529   0.268  -5.107  1.00  0.00     0.055 A 
ATOM     31  N   UNL     1      -5.960   1.872  -5.490  1.00  0.00    -0.282 N 
ATOM     32  C   UNL     1      -5.291   0.849  -6.063  1.00  0.00     0.039 A 
ATOM     33  H   UNL     1      -6.617   2.507  -5.965  1.00  0.00     0.190 HD
BRANCH  32  34
ATOM     34  C   UNL     1      -5.378   0.429  -7.508  1.00  0.00     0.038 C 
ATOM     35  C   UNL     1      -6.733   0.569  -8.204  1.00  0.00     0.010 C 
ATOM     36  C   UNL     1      -5.590   1.527  -8.551  1.00  0.00     0.010 C 
ENDBRANCH  32  34
ENDBRANCH  27  28
ENDBRANCH  24  27
ENDBRANCH  12  24
TORSDOF 7
