REMARK SMILES CNC(=O)[C@@H]1C[C@@H]([NH2+]C2Cc3ccccc3C2)CN1Cc1cccc2ccccc12
REMARK SMILES IDX 5 1 6 2 7 3 18 4 19 5 3 6 1 7 2 8 4 10 20 11 21 12 30 13
REMARK SMILES IDX 22 14 25 15 29 16 23 17 24 18 26 19 28 20 27 21 8 22 9 25
REMARK SMILES IDX 17 26 10 27 16 28 11 29 15 30 12 31 14 32 13 33
REMARK H PARENT 2 9 8 23 8 24
REMARK Flexibility Score: inf
ROOT
ATOM      1  C   UNL     1       1.173  -0.324  -2.058  1.00  0.00     0.153 C 
ATOM      2  C   UNL     1       1.528  -0.311  -3.556  1.00  0.00     0.095 C 
ATOM      3  C   UNL     1       2.934  -0.950  -3.642  1.00  0.00     0.199 C 
ATOM      4  C   UNL     1       3.493  -0.751  -2.211  1.00  0.00     0.150 C 
ATOM      5  N   UNL     1       2.305  -0.962  -1.377  1.00  0.00    -0.282 NA
ENDROOT
BRANCH   1   6
ATOM      6  C   UNL     1      -0.088  -1.120  -1.836  1.00  0.00     0.237 C 
ATOM      7  C   UNL     1      -2.472  -1.490  -2.178  1.00  0.00     0.142 C 
ATOM      8  N   UNL     1      -1.246  -0.716  -2.394  1.00  0.00    -0.358 N 
ATOM      9  H   UNL     1      -1.270   0.136  -2.972  1.00  0.00     0.163 HD
ATOM     10  O   UNL     1      -0.060  -2.123  -1.155  1.00  0.00    -0.273 OA
ENDBRANCH   1   6
BRANCH   5  11
ATOM     11  C   UNL     1       2.500  -0.361  -0.023  1.00  0.00     0.121 C 
BRANCH  11  12
ATOM     12  C   UNL     1       1.241  -0.515   0.791  1.00  0.00    -0.026 A 
ATOM     13  C   UNL     1       0.950  -1.738   1.417  1.00  0.00    -0.014 A 
ATOM     14  C   UNL     1       0.380   0.531   0.923  1.00  0.00     0.006 A 
ATOM     15  C   UNL     1      -0.239  -1.864   2.179  1.00  0.00    -0.018 A 
ATOM     16  C   UNL     1       1.815  -2.840   1.304  1.00  0.00     0.009 A 
ATOM     17  C   UNL     1      -0.789   0.408   1.671  1.00  0.00     0.001 A 
ATOM     18  C   UNL     1      -1.104  -0.762   2.292  1.00  0.00     0.009 A 
ATOM     19  C   UNL     1      -0.530  -3.087   2.806  1.00  0.00     0.009 A 
ATOM     20  C   UNL     1       1.498  -4.011   1.921  1.00  0.00     0.001 A 
ATOM     21  C   UNL     1       0.331  -4.133   2.675  1.00  0.00     0.001 A 
ENDBRANCH  11  12
ENDBRANCH   5  11
BRANCH   3  22
ATOM     22  N   UNL     1       3.763  -0.235  -4.631  1.00  0.00    -0.340 N 
ATOM     23  H   UNL     1       4.132   0.628  -4.209  1.00  0.00     0.346 HD
ATOM     24  H   UNL     1       3.185   0.009  -5.448  1.00  0.00     0.346 HD
BRANCH  22  25
ATOM     25  C   UNL     1       4.888  -1.085  -5.066  1.00  0.00     0.191 C 
ATOM     26  C   UNL     1       5.415  -0.622  -6.440  1.00  0.00     0.101 C 
ATOM     27  C   UNL     1       6.114  -0.883  -4.150  1.00  0.00     0.101 C 
ATOM     28  C   UNL     1       6.912  -0.842  -6.385  1.00  0.00    -0.039 A 
ATOM     29  C   UNL     1       7.314  -0.991  -5.071  1.00  0.00    -0.039 A 
ATOM     30  C   UNL     1       7.848  -0.908  -7.404  1.00  0.00     0.004 A 
ATOM     31  C   UNL     1       8.651  -1.204  -4.779  1.00  0.00     0.004 A 
ATOM     32  C   UNL     1       9.181  -1.120  -7.110  1.00  0.00     0.000 A 
ATOM     33  C   UNL     1       9.583  -1.268  -5.796  1.00  0.00     0.000 A 
ENDBRANCH  22  25
ENDBRANCH   3  22
TORSDOF 5
