REMARK SMILES CCC(C)(C)[C@H]1CCc2c(sc(NC(=O)CSc3nnc(COc4ccccc4C)n3C)c2C#N)C1
REMARK SMILES IDX 16 1 14 2 13 3 15 5 12 6 6 7 36 8 7 9 10 10 8 11 9 12 11 13
REMARK SMILES IDX 33 14 3 15 4 16 5 17 2 18 1 19 34 20 35 21 17 22 18 23 31 24
REMARK SMILES IDX 19 25 21 26 32 27 20 28 22 29 23 30 24 31 29 32 25 33 28 34
REMARK SMILES IDX 30 35 26 36 27 37
REMARK H PARENT 13 4
REMARK Flexibility Score: inf
ROOT
ATOM      1  C   UNL     1       3.402  -9.568   2.045  1.00  0.00     0.178 C 
ENDROOT
BRANCH   1   2
ATOM      2  C   UNL     1       3.026  -8.164   1.649  1.00  0.00     0.235 C 
ATOM      3  N   UNL     1       2.703  -7.888   0.370  1.00  0.00    -0.316 N 
ATOM      4  H   UNL     1       2.713  -8.637  -0.337  1.00  0.00     0.170 HD
ATOM      5  O   UNL     1       3.014  -7.282   2.482  1.00  0.00    -0.274 OA
BRANCH   3   6
ATOM      6  C   UNL     1       2.356  -6.594   0.005  1.00  0.00     0.114 A 
ATOM      7  C   UNL     1       0.739  -2.027  -1.265  1.00  0.00     0.000 C 
ATOM      8  C   UNL     1       1.496  -2.539  -0.031  1.00  0.00     0.051 C 
ATOM      9  C   UNL     1       1.455  -2.524  -2.524  1.00  0.00     0.009 C 
ATOM     10  C   UNL     1       1.766  -4.000  -0.215  1.00  0.00     0.012 A 
ATOM     11  C   UNL     1       1.267  -4.035  -2.668  1.00  0.00     0.038 C 
ATOM     12  C   UNL     1       1.677  -4.707  -1.364  1.00  0.00    -0.014 A 
ATOM     13  S   UNL     1       2.267  -5.181   1.005  1.00  0.00    -0.121 S 
ATOM     14  C   UNL     1       1.997  -6.119  -1.247  1.00  0.00     0.090 A 
BRANCH   7  15
ATOM     15  C   UNL     1       0.718  -0.497  -1.257  1.00  0.00    -0.032 C 
ATOM     16  C   UNL     1      -0.022   0.009  -2.496  1.00  0.00     0.011 C 
ATOM     17  C   UNL     1       2.154   0.032  -1.268  1.00  0.00     0.011 C 
BRANCH  15  18
ATOM     18  C   UNL     1       0.002  -0.004   0.002  1.00  0.00     0.003 C 
ATOM     19  C   UNL     1      -0.019   1.526   0.010  1.00  0.00     0.004 C 
ENDBRANCH  15  18
ENDBRANCH   7  15
BRANCH  14  20
ATOM     20  C   UNL     1       1.944  -6.988  -2.384  1.00  0.00     0.103 C 
ATOM     21  N   UNL     1       1.902  -7.678  -3.285  1.00  0.00    -0.192 NA
ENDBRANCH  14  20
ENDBRANCH   3   6
ENDBRANCH   1   2
BRANCH   1  22
ATOM     22  S   UNL     1       3.779  -9.616   3.815  1.00  0.00    -0.076 SA
BRANCH  22  23
ATOM     23  C   UNL     1       4.175 -11.323   3.998  1.00  0.00     0.191 A 
ATOM     24  N   UNL     1       4.551 -11.950   5.150  1.00  0.00    -0.306 N 
ATOM     25  N   UNL     1       4.169 -12.232   3.050  1.00  0.00    -0.123 NA
ATOM     26  C   UNL     1       4.749 -13.260   4.812  1.00  0.00     0.171 A 
ATOM     27  C   UNL     1       4.706 -11.346   6.476  1.00  0.00     0.154 C 
ATOM     28  N   UNL     1       4.508 -13.372   3.536  1.00  0.00    -0.131 NA
BRANCH  26  29
ATOM     29  C   UNL     1       5.173 -14.369   5.740  1.00  0.00     0.307 C 
BRANCH  29  30
ATOM     30  O   UNL     1       6.600 -14.448   5.766  1.00  0.00    -0.485 OA
BRANCH  30  31
ATOM     31  C   UNL     1       7.150 -15.404   6.561  1.00  0.00     0.122 A 
ATOM     32  C   UNL     1       8.529 -15.537   6.634  1.00  0.00    -0.009 A 
ATOM     33  C   UNL     1       6.334 -16.243   7.306  1.00  0.00     0.047 A 
ATOM     34  C   UNL     1       9.086 -16.509   7.443  1.00  0.00     0.007 A 
ATOM     35  C   UNL     1       9.418 -14.623   5.832  1.00  0.00     0.048 C 
ATOM     36  C   UNL     1       6.895 -17.216   8.109  1.00  0.00     0.004 A 
ATOM     37  C   UNL     1       8.270 -17.348   8.180  1.00  0.00     0.001 A 
ENDBRANCH  30  31
ENDBRANCH  29  30
ENDBRANCH  26  29
ENDBRANCH  22  23
ENDBRANCH   1  22
TORSDOF 10
