REMARK SMILES Cc1sc2nc(-c3ccc(Cl)c([N+](=O)[O-])c3)c(/C=N/N=C(N)N)n2c1C
REMARK SMILES IDX 26 1 25 2 2 3 3 4 4 5 24 6 17 7 6 8 5 9 1 10 18 11 19 12
REMARK SMILES IDX 20 13 21 14 22 15 23 16 7 21 16 22 8 23 12 24 9 25 10 26
REMARK SMILES IDX 11 27 13 28 15 29 14 30
REMARK H PARENT 22 17 22 18 23 19 23 20
REMARK Flexibility Score: inf
ROOT
ATOM      1  C   UNL     1       1.032  -2.879   0.637  1.00  0.00     0.066 C 
ATOM      2  C   UNL     1       1.853  -1.623   0.499  1.00  0.00     0.035 A 
ATOM      3  C   UNL     1       3.183  -1.667   0.628  1.00  0.00     0.025 A 
ATOM      4  S   UNL     1       3.634   0.040   0.379  1.00  0.00    -0.101 S 
ATOM      5  C   UNL     1       2.045   0.677   0.125  1.00  0.00     0.195 A 
ATOM      6  N   UNL     1       1.242  -0.419   0.238  1.00  0.00    -0.286 N 
ATOM      7  C   UNL     1      -0.070   0.056   0.038  1.00  0.00     0.095 A 
ATOM      8  C   UNL     1       0.066   1.507  -0.197  1.00  0.00     0.100 A 
ATOM      9  N   UNL     1       1.356   1.780  -0.125  1.00  0.00    -0.218 NA
ATOM     10  C   UNL     1       4.070  -2.852   0.912  1.00  0.00     0.058 C 
ENDROOT
BRANCH   7  11
ATOM     11  C   UNL     1      -1.225  -0.673   0.057  1.00  0.00     0.164 C 
ATOM     12  N   UNL     1      -2.224  -0.325   0.882  1.00  0.00    -0.153 NA
BRANCH  12  13
ATOM     13  N   UNL     1      -3.275  -1.068   0.971  1.00  0.00    -0.115 NA
ATOM     14  C   UNL     1      -4.236  -0.774   1.875  1.00  0.00     0.211 C 
ATOM     15  N   UNL     1      -4.148   0.352   2.608  1.00  0.00    -0.369 N 
ATOM     16  N   UNL     1      -5.281  -1.607   2.042  1.00  0.00    -0.369 N 
ATOM     17  H   UNL     1      -3.349   0.989   2.481  1.00  0.00     0.159 HD
ATOM     18  H   UNL     1      -4.880   0.576   3.297  1.00  0.00     0.159 HD
ATOM     19  H   UNL     1      -5.348  -2.468   1.481  1.00  0.00     0.159 HD
ATOM     20  H   UNL     1      -6.013  -1.383   2.731  1.00  0.00     0.159 HD
ENDBRANCH  12  13
ENDBRANCH   7  11
BRANCH   8  21
ATOM     21  C   UNL     1      -1.024   2.464  -0.465  1.00  0.00     0.009 A 
ATOM     22  C   UNL     1      -1.020   3.722   0.146  1.00  0.00     0.097 A 
ATOM     23  C   UNL     1      -2.070   2.114  -1.326  1.00  0.00     0.012 A 
ATOM     24  C   UNL     1      -2.039   4.613  -0.114  1.00  0.00     0.288 A 
ATOM     25  C   UNL     1      -3.085   3.013  -1.572  1.00  0.00     0.028 A 
ATOM     26  C   UNL     1      -3.072   4.260  -0.968  1.00  0.00     0.118 A 
ATOM     27  Cl  UNL     1      -4.355   5.386  -1.284  1.00  0.00    -0.077 Cl
BRANCH  24  28
ATOM     28  N   UNL     1      -2.034   5.948   0.526  1.00  0.00     0.064 N 
ATOM     29  O   UNL     1      -1.053   6.285   1.338  1.00  0.00    -0.258 OA
ATOM     30  O   UNL     1      -3.010   6.798   0.283  1.00  0.00    -0.258 OA
ENDBRANCH  24  28
ENDBRANCH   8  21
TORSDOF 4
