REMARK SMILES CC[NH+](CC)[C@@H](CNC(=O)c1cccc(S(=O)(=O)NCc2cccs2)c1)Cc1ccccc1
REMARK SMILES IDX 11 1 12 2 13 3 14 4 15 5 26 6 9 7 8 8 10 10 7 11 6 12 3 13
REMARK SMILES IDX 2 15 1 16 4 17 5 18 27 19 28 20 33 21 29 22 32 23 30 24
REMARK SMILES IDX 31 25 16 26 17 27 18 28 19 29 20 31 21 32 25 33 22 34 24 35
REMARK SMILES IDX 23 36
REMARK H PARENT 8 9 3 14 19 30
REMARK Flexibility Score: inf
ROOT
ATOM      1  C   UNL     1      -5.194  -0.842   5.237  1.00  0.00     0.041 A 
ATOM      2  C   UNL     1      -4.545   0.074   6.066  1.00  0.00     0.014 A 
ATOM      3  C   UNL     1      -4.860   0.129   7.408  1.00  0.00     0.002 A 
ATOM      4  C   UNL     1      -5.810  -0.729   7.934  1.00  0.00     0.022 A 
ATOM      5  C   UNL     1      -6.453  -1.643   7.118  1.00  0.00     0.083 A 
ATOM      6  C   UNL     1      -6.151  -1.704   5.774  1.00  0.00     0.035 A 
ENDROOT
BRANCH   1   7
ATOM      7  C   UNL     1      -4.864  -0.903   3.796  1.00  0.00     0.251 C 
ATOM      8  N   UNL     1      -3.863  -0.148   3.302  1.00  0.00    -0.346 N 
ATOM      9  H   UNL     1      -3.277   0.411   3.938  1.00  0.00     0.164 HD
ATOM     10  O   UNL     1      -5.496  -1.633   3.059  1.00  0.00    -0.269 OA
BRANCH   8  11
ATOM     11  C   UNL     1      -3.608  -0.123   1.859  1.00  0.00     0.181 C 
BRANCH  11  12
ATOM     12  C   UNL     1      -2.412   0.785   1.568  1.00  0.00     0.207 C 
BRANCH  12  13
ATOM     13  N   UNL     1      -2.729   2.159   1.979  1.00  0.00    -0.331 N 
ATOM     14  H   UNL     1      -2.273   2.801   1.315  1.00  0.00     0.348 HD
BRANCH  13  15
ATOM     15  C   UNL     1      -4.176   2.404   1.923  1.00  0.00     0.259 C 
ATOM     16  C   UNL     1      -4.640   2.391   0.466  1.00  0.00     0.071 C 
ENDBRANCH  13  15
BRANCH  13  17
ATOM     17  C   UNL     1      -2.197   2.444   3.319  1.00  0.00     0.259 C 
ATOM     18  C   UNL     1      -0.691   2.696   3.227  1.00  0.00     0.071 C 
ENDBRANCH  13  17
ENDBRANCH  12  13
BRANCH  12  19
ATOM     19  C   UNL     1      -2.104   0.758   0.070  1.00  0.00     0.102 C 
BRANCH  19  20
ATOM     20  C   UNL     1      -0.844   1.539  -0.198  1.00  0.00    -0.042 A 
ATOM     21  C   UNL     1      -0.920   2.868  -0.572  1.00  0.00     0.004 A 
ATOM     22  C   UNL     1       0.389   0.928  -0.065  1.00  0.00     0.004 A 
ATOM     23  C   UNL     1       0.237   3.582  -0.823  1.00  0.00     0.000 A 
ATOM     24  C   UNL     1       1.546   1.643  -0.316  1.00  0.00     0.000 A 
ATOM     25  C   UNL     1       1.469   2.970  -0.695  1.00  0.00     0.000 A 
ENDBRANCH  19  20
ENDBRANCH  12  19
ENDBRANCH  11  12
ENDBRANCH   8  11
ENDBRANCH   1   7
BRANCH   5  26
ATOM     26  S   UNL     1      -7.661  -2.730   7.798  1.00  0.00     0.240 S 
ATOM     27  O   UNL     1      -8.157  -2.103   8.973  1.00  0.00    -0.207 OA
ATOM     28  O   UNL     1      -8.509  -3.117   6.726  1.00  0.00    -0.207 OA
BRANCH  26  29
ATOM     29  N   UNL     1      -6.867  -4.098   8.290  1.00  0.00    -0.206 NA
ATOM     30  H   UNL     1      -7.061  -4.999   7.831  1.00  0.00     0.141 HD
BRANCH  29  31
ATOM     31  C   UNL     1      -5.888  -4.025   9.378  1.00  0.00     0.145 C 
BRANCH  31  32
ATOM     32  C   UNL     1      -5.589  -5.415   9.878  1.00  0.00     0.019 A 
ATOM     33  S   UNL     1      -6.397  -6.343  11.171  1.00  0.00    -0.148 S 
ATOM     34  C   UNL     1      -4.639  -6.287   9.458  1.00  0.00     0.017 A 
ATOM     35  C   UNL     1      -5.410  -7.828  11.069  1.00  0.00     0.065 A 
ATOM     36  C   UNL     1      -4.545  -7.521  10.072  1.00  0.00     0.012 A 
ENDBRANCH  31  32
ENDBRANCH  29  31
ENDBRANCH  26  29
ENDBRANCH   5  26
TORSDOF 12
