REMARK SMILES N/C(=N\NC(=O)c1cccc(Cl)c1)c1cc2c(ccc3ccccc32)oc1=O
REMARK SMILES IDX 2 1 3 2 1 3 14 6 22 7 21 8 23 9 20 10 24 11 25 12 19 13
REMARK SMILES IDX 16 14 18 15 17 16 15 17 26 18 27 19 28 20 4 21 5 22 6 24
REMARK SMILES IDX 7 25 13 26 8 27 11 28 9 29 10 30 12 31
REMARK H PARENT 1 4 1 5 4 23
REMARK Flexibility Score: inf
ROOT
ATOM      1  C   UNL     1      -6.020   1.598   0.038  1.00  0.00     0.158 C 
ATOM      2  N   UNL     1      -4.883   0.956   0.029  1.00  0.00    -0.154 NA
ATOM      3  N   UNL     1      -6.034   2.987   0.046  1.00  0.00    -0.382 N 
ATOM      4  H   UNL     1      -6.931   3.494   0.053  1.00  0.00     0.158 HD
ATOM      5  H   UNL     1      -5.147   3.511   0.045  1.00  0.00     0.158 HD
ENDROOT
BRANCH   1   6
ATOM      6  C   UNL     1      -7.290   0.848   0.039  1.00  0.00     0.105 A 
ATOM      7  C   UNL     1     -13.502   2.604   0.076  1.00  0.00     0.001 A 
ATOM      8  C   UNL     1     -13.425   1.244   0.068  1.00  0.00     0.009 A 
ATOM      9  C   UNL     1     -12.351   3.386   0.076  1.00  0.00     0.001 A 
ATOM     10  C   UNL     1     -12.168   0.619   0.059  1.00  0.00    -0.018 A 
ATOM     11  C   UNL     1     -11.114   2.810   0.067  1.00  0.00     0.009 A 
ATOM     12  C   UNL     1     -11.000   1.418   0.059  1.00  0.00    -0.007 A 
ATOM     13  C   UNL     1     -12.048  -0.784   0.050  1.00  0.00     0.012 A 
ATOM     14  C   UNL     1      -9.694   0.755   0.049  1.00  0.00     0.026 A 
ATOM     15  C   UNL     1     -10.831  -1.384   0.041  1.00  0.00     0.048 A 
ATOM     16  C   UNL     1      -9.643  -0.645   0.040  1.00  0.00     0.139 A 
ATOM     17  C   UNL     1      -8.505   1.514   0.049  1.00  0.00     0.032 A 
ATOM     18  O   UNL     1      -8.456  -1.289   0.031  1.00  0.00    -0.422 OA
ATOM     19  C   UNL     1      -7.293  -0.618   0.025  1.00  0.00     0.347 A 
ATOM     20  O   UNL     1      -6.239  -1.228   0.011  1.00  0.00    -0.246 OA
ENDBRANCH   1   6
BRANCH   2  21
ATOM     21  N   UNL     1      -3.677   1.669   0.028  1.00  0.00    -0.241 N 
ATOM     22  C   UNL     1      -2.503   1.007   0.019  1.00  0.00     0.271 C 
ATOM     23  H   UNL     1      -3.687   2.699   0.034  1.00  0.00     0.194 HD
ATOM     24  O   UNL     1      -2.491  -0.210   0.012  1.00  0.00    -0.267 OA
BRANCH  22  25
ATOM     25  C   UNL     1      -1.230   1.759   0.017  1.00  0.00     0.043 A 
ATOM     26  C   UNL     1      -1.241   3.154   0.031  1.00  0.00     0.034 A 
ATOM     27  C   UNL     1      -0.013   1.076   0.008  1.00  0.00     0.014 A 
ATOM     28  C   UNL     1      -0.048   3.850   0.023  1.00  0.00     0.041 A 
ATOM     29  C   UNL     1       1.172   1.783   0.000  1.00  0.00     0.002 A 
ATOM     30  C   UNL     1       1.155   3.167   0.008  1.00  0.00     0.020 A 
ATOM     31  Cl  UNL     1      -0.058   5.586   0.033  1.00  0.00    -0.084 Cl
ENDBRANCH  22  25
ENDBRANCH   2  21
TORSDOF 3
