REMARK SMILES COC(=O)c1c(-c2ccc(C)cc2)csc1NC(=O)CSc1nnc([C@H]2C[C@@H]2c2ccccc2)n1C
REMARK SMILES IDX 20 1 18 2 17 3 19 5 16 6 6 7 5 8 14 9 15 10 7 11 11 12 10 13
REMARK SMILES IDX 12 14 9 15 13 16 8 17 3 18 4 19 2 20 1 21 21 22 22 23 35 24
REMARK SMILES IDX 23 25 25 26 36 27 24 28 26 29 28 30 27 31 29 32 34 33 30 34
REMARK SMILES IDX 33 35 31 36 32 37
REMARK H PARENT 17 4
REMARK Flexibility Score: inf
ROOT
ATOM      1  C   UNL     1       1.509   2.220   4.579  1.00  0.00     0.178 C 
ENDROOT
BRANCH   1   2
ATOM      2  C   UNL     1       2.896   2.175   5.166  1.00  0.00     0.235 C 
ATOM      3  N   UNL     1       3.096   2.531   6.450  1.00  0.00    -0.316 N 
ATOM      4  H   UNL     1       2.301   2.833   7.031  1.00  0.00     0.170 HD
ATOM      5  O   UNL     1       3.832   1.818   4.482  1.00  0.00    -0.274 OA
BRANCH   3   6
ATOM      6  C   UNL     1       4.372   2.489   6.990  1.00  0.00     0.110 A 
ATOM      7  C   UNL     1       6.184   2.678   8.579  1.00  0.00     0.009 A 
ATOM      8  C   UNL     1       4.772   2.820   8.278  1.00  0.00     0.102 A 
ATOM      9  C   UNL     1       6.983   2.246   7.570  1.00  0.00     0.076 A 
ATOM     10  S   UNL     1       5.848   2.019   6.217  1.00  0.00    -0.125 S 
BRANCH   7  11
ATOM     11  C   UNL     1       6.729   2.996   9.921  1.00  0.00    -0.017 A 
ATOM     12  C   UNL     1       8.300   3.911  13.790  1.00  0.00     0.044 C 
ATOM     13  C   UNL     1       7.746   3.588  12.426  1.00  0.00    -0.051 A 
ATOM     14  C   UNL     1       6.924   4.497  11.784  1.00  0.00     0.004 A 
ATOM     15  C   UNL     1       8.061   2.385  11.822  1.00  0.00     0.004 A 
ATOM     16  C   UNL     1       6.419   4.210  10.532  1.00  0.00     0.009 A 
ATOM     17  C   UNL     1       7.557   2.084  10.573  1.00  0.00     0.009 A 
ENDBRANCH   7  11
BRANCH   8  18
ATOM     18  C   UNL     1       3.816   3.284   9.283  1.00  0.00     0.341 C 
ATOM     19  O   UNL     1       3.257   2.481  10.007  1.00  0.00    -0.246 OA
BRANCH  18  20
ATOM     20  O   UNL     1       3.554   4.601   9.407  1.00  0.00    -0.465 OA
ATOM     21  C   UNL     1       2.594   4.989  10.425  1.00  0.00     0.282 C 
ENDBRANCH  18  20
ENDBRANCH   8  18
ENDBRANCH   3   6
ENDBRANCH   1   2
BRANCH   1  22
ATOM     22  S   UNL     1       1.568   1.689   2.850  1.00  0.00    -0.076 SA
BRANCH  22  23
ATOM     23  C   UNL     1      -0.137   1.835   2.427  1.00  0.00     0.191 A 
ATOM     24  N   UNL     1      -0.698   1.558   1.213  1.00  0.00    -0.309 N 
ATOM     25  N   UNL     1      -1.107   2.228   3.219  1.00  0.00    -0.123 NA
ATOM     26  C   UNL     1      -2.033   1.820   1.355  1.00  0.00     0.137 A 
ATOM     27  C   UNL     1      -0.013   1.086   0.008  1.00  0.00     0.154 C 
ATOM     28  N   UNL     1      -2.223   2.215   2.582  1.00  0.00    -0.134 NA
BRANCH  26  29
ATOM     29  C   UNL     1      -3.090   1.676   0.290  1.00  0.00     0.066 C 
ATOM     30  C   UNL     1      -3.874   2.929  -0.102  1.00  0.00     0.031 C 
ATOM     31  C   UNL     1      -4.550   1.829   0.718  1.00  0.00     0.021 C 
BRANCH  30  32
ATOM     32  C   UNL     1      -4.282   3.072  -1.545  1.00  0.00    -0.044 A 
ATOM     33  C   UNL     1      -3.842   4.154  -2.284  1.00  0.00     0.004 A 
ATOM     34  C   UNL     1      -5.093   2.118  -2.132  1.00  0.00     0.004 A 
ATOM     35  C   UNL     1      -4.216   4.285  -3.608  1.00  0.00     0.000 A 
ATOM     36  C   UNL     1      -5.471   2.252  -3.455  1.00  0.00     0.000 A 
ATOM     37  C   UNL     1      -5.031   3.334  -4.194  1.00  0.00     0.000 A 
ENDBRANCH  30  32
ENDBRANCH  26  29
ENDBRANCH  22  23
ENDBRANCH   1  22
TORSDOF 9
