REMARK SMILES CC1=NC(C)=C(C(=O)NCc2ccccc2)[C@@H](c2ccc(Cl)c(Cl)c2)C1C(=O)NCc1ccccc1
REMARK SMILES IDX 1 1 2 2 26 3 17 4 6 5 4 6 3 7 5 8 27 9 28 10 29 11 30 13
REMARK SMILES IDX 31 14 36 15 32 16 35 17 33 18 34 19 18 20 25 21 19 22 23 23
REMARK SMILES IDX 20 24 21 25 24 26 22 27 7 28 8 29 9 30 10 32 11 33 16 34
REMARK SMILES IDX 12 35 15 36 13 37 14 38
REMARK H PARENT 29 12 9 31
REMARK Flexibility Score: inf
ROOT
ATOM      1  C   UNL     1       3.915   5.163   2.323  1.00  0.00     0.062 C 
ATOM      2  C   UNL     1       3.164   4.643   1.125  1.00  0.00     0.029 C 
ATOM      3  C   UNL     1       1.940   4.116   1.286  1.00  0.00     0.135 C 
ATOM      4  C   UNL     1       1.158   3.578   0.122  1.00  0.00     0.075 C 
ATOM      5  C   UNL     1       1.736   4.064  -1.177  1.00  0.00     0.047 C 
ATOM      6  C   UNL     1       2.968   4.593  -1.241  1.00  0.00     0.047 C 
ATOM      7  N   UNL     1       3.739   4.714  -0.116  1.00  0.00    -0.261 NA
ATOM      8  C   UNL     1       3.509   5.060  -2.568  1.00  0.00     0.067 C 
ENDROOT
BRANCH   3   9
ATOM      9  C   UNL     1       1.373   4.067   2.584  1.00  0.00     0.230 C 
ATOM     10  O   UNL     1       2.034   4.398   3.550  1.00  0.00    -0.274 OA
ATOM     11  N   UNL     1       0.101   3.653   2.748  1.00  0.00    -0.351 N 
ATOM     12  H   UNL     1      -0.459   3.372   1.930  1.00  0.00     0.163 HD
BRANCH  11  13
ATOM     13  C   UNL     1      -0.486   3.602   4.089  1.00  0.00     0.151 C 
BRANCH  13  14
ATOM     14  C   UNL     1      -1.907   3.109   3.998  1.00  0.00    -0.029 A 
ATOM     15  C   UNL     1      -2.176   1.756   4.081  1.00  0.00     0.005 A 
ATOM     16  C   UNL     1      -2.942   4.011   3.837  1.00  0.00     0.005 A 
ATOM     17  C   UNL     1      -3.480   1.304   3.997  1.00  0.00     0.000 A 
ATOM     18  C   UNL     1      -4.245   3.558   3.748  1.00  0.00     0.000 A 
ATOM     19  C   UNL     1      -4.514   2.205   3.831  1.00  0.00     0.000 A 
ENDBRANCH  13  14
ENDBRANCH  11  13
ENDBRANCH   3   9
BRANCH   4  20
ATOM     20  C   UNL     1       1.199   2.072   0.150  1.00  0.00    -0.037 A 
ATOM     21  C   UNL     1       2.410   1.412   0.064  1.00  0.00     0.026 A 
ATOM     22  C   UNL     1       0.025   1.351   0.263  1.00  0.00     0.006 A 
ATOM     23  C   UNL     1       2.449   0.030   0.090  1.00  0.00     0.059 A 
ATOM     24  C   UNL     1       0.061  -0.031   0.289  1.00  0.00     0.022 A 
ATOM     25  C   UNL     1       1.273  -0.693   0.202  1.00  0.00     0.059 A 
ATOM     26  Cl  UNL     1       3.970  -0.799  -0.019  1.00  0.00    -0.083 Cl
ATOM     27  Cl  UNL     1       1.319  -2.428   0.234  1.00  0.00    -0.083 Cl
ENDBRANCH   4  20
BRANCH   5  28
ATOM     28  C   UNL     1       0.965   3.962  -2.360  1.00  0.00     0.249 C 
ATOM     29  O   UNL     1       1.421   4.351  -3.420  1.00  0.00    -0.270 OA
ATOM     30  N   UNL     1      -0.275   3.434  -2.313  1.00  0.00    -0.348 N 
ATOM     31  H   UNL     1      -0.660   3.104  -1.417  1.00  0.00     0.164 HD
BRANCH  30  32
ATOM     32  C   UNL     1      -1.073   3.328  -3.537  1.00  0.00     0.152 C 
BRANCH  32  33
ATOM     33  C   UNL     1      -2.408   2.708  -3.214  1.00  0.00    -0.029 A 
ATOM     34  C   UNL     1      -3.476   3.511  -2.863  1.00  0.00     0.005 A 
ATOM     35  C   UNL     1      -2.565   1.336  -3.275  1.00  0.00     0.005 A 
ATOM     36  C   UNL     1      -4.701   2.943  -2.567  1.00  0.00     0.000 A 
ATOM     37  C   UNL     1      -3.788   0.767  -2.974  1.00  0.00     0.000 A 
ATOM     38  C   UNL     1      -4.857   1.570  -2.623  1.00  0.00     0.000 A 
ENDBRANCH  32  33
ENDBRANCH  30  32
ENDBRANCH   5  28
TORSDOF 7
