REMARK SMILES C[C@H](/[NH+]=C(\N)SCc1cc(=O)n2c3c(sc2n1)CCCC3)c1ccccc1
REMARK SMILES IDX 3 1 4 2 5 3 2 7 1 8 22 9 27 10 23 11 26 12 24 13 25 14 6 15
REMARK SMILES IDX 7 16 8 17 17 18 9 19 16 20 10 21 12 22 15 23 11 24 13 25
REMARK SMILES IDX 14 26 21 27 18 28 20 29 19 30
REMARK H PARENT 3 4 5 5 5 6
REMARK Flexibility Score: inf
ROOT
ATOM      1  N   UNL     1       6.177  -1.975  -0.139  1.00  0.00    -0.262 N 
ATOM      2  C   UNL     1       6.010  -1.553  -1.362  1.00  0.00     0.302 C 
ATOM      3  N   UNL     1       6.956  -1.832  -2.321  1.00  0.00    -0.282 N 
ATOM      4  H   UNL     1       5.427  -1.851   0.556  1.00  0.00     0.306 HD
ATOM      5  H   UNL     1       7.796  -2.375  -2.074  1.00  0.00     0.302 HD
ATOM      6  H   UNL     1       6.824  -1.499  -3.287  1.00  0.00     0.302 HD
ENDROOT
BRANCH   1   7
ATOM      7  C   UNL     1       7.432  -2.626   0.246  1.00  0.00     0.201 C 
ATOM      8  C   UNL     1       8.014  -1.924   1.475  1.00  0.00     0.063 C 
BRANCH   7   9
ATOM      9  C   UNL     1       7.168  -4.073   0.573  1.00  0.00    -0.004 A 
ATOM     10  C   UNL     1       8.064  -5.047   0.173  1.00  0.00     0.008 A 
ATOM     11  C   UNL     1       6.032  -4.427   1.276  1.00  0.00     0.008 A 
ATOM     12  C   UNL     1       7.822  -6.375   0.472  1.00  0.00     0.000 A 
ATOM     13  C   UNL     1       5.787  -5.755   1.572  1.00  0.00     0.000 A 
ATOM     14  C   UNL     1       6.683  -6.729   1.172  1.00  0.00     0.000 A 
ENDBRANCH   7   9
ENDBRANCH   1   7
BRANCH   2  15
ATOM     15  S   UNL     1       4.573  -0.625  -1.785  1.00  0.00    -0.033 SA
BRANCH  15  16
ATOM     16  C   UNL     1       3.741  -0.584  -0.178  1.00  0.00     0.139 C 
BRANCH  16  17
ATOM     17  C   UNL     1       2.449   0.181  -0.301  1.00  0.00     0.060 A 
ATOM     18  N   UNL     1       2.454   1.509  -0.393  1.00  0.00    -0.224 NA
ATOM     19  C   UNL     1       1.240  -0.481  -0.320  1.00  0.00     0.097 A 
ATOM     20  C   UNL     1       1.335   2.182  -0.500  1.00  0.00     0.197 A 
ATOM     21  C   UNL     1       0.054   0.244  -0.435  1.00  0.00     0.259 A 
ATOM     22  N   UNL     1       0.096   1.607  -0.527  1.00  0.00    -0.255 N 
ATOM     23  S   UNL     1       0.968   3.918  -0.641  1.00  0.00    -0.101 S 
ATOM     24  O   UNL     1      -1.020  -0.337  -0.451  1.00  0.00    -0.269 OA
ATOM     25  C   UNL     1      -1.006   2.442  -0.651  1.00  0.00     0.042 A 
ATOM     26  C   UNL     1      -0.797   3.763  -0.727  1.00  0.00     0.028 A 
ATOM     27  C   UNL     1      -2.427   1.883  -0.686  1.00  0.00     0.056 C 
ATOM     28  C   UNL     1      -1.816   4.849  -0.860  1.00  0.00     0.049 C 
ATOM     29  C   UNL     1      -3.410   3.005  -0.351  1.00  0.00     0.007 C 
ATOM     30  C   UNL     1      -3.155   4.212  -1.260  1.00  0.00     0.006 C 
ENDBRANCH  16  17
ENDBRANCH  15  16
ENDBRANCH   2  15
TORSDOF 5
