REMARK SMILES C=CCc1cccc(/C=N/Nc2nc(SCC(=O)NC(c3ccccc3)c3ccccc3)n[nH]2)c1O
REMARK SMILES IDX 12 1 13 2 14 3 33 4 34 5 11 7 10 9 9 10 8 11 4 12 35 13 5 14
REMARK SMILES IDX 6 15 7 16 3 17 2 18 1 19 36 20 15 22 16 23 17 24 18 25 19 26
REMARK SMILES IDX 20 28 21 29 26 30 22 31 25 32 23 33 24 34 27 35 32 36 28 37
REMARK SMILES IDX 31 38 29 39 30 40
REMARK H PARENT 34 6 11 8 36 21 19 27
REMARK Flexibility Score: inf
ROOT
ATOM      1  C   UNL     1       4.852   5.543  -0.013  1.00  0.00     0.240 A 
ATOM      2  N   UNL     1       5.952   6.354  -0.018  1.00  0.00    -0.184 NA
ATOM      3  C   UNL     1       5.521   7.650  -0.007  1.00  0.00     0.210 A 
ATOM      4  N   UNL     1       4.210   7.641   0.005  1.00  0.00    -0.145 NA
ATOM      5  N   UNL     1       3.786   6.305  -0.004  1.00  0.00    -0.243 N 
ATOM      6  H   UNL     1       2.809   5.980  -0.004  1.00  0.00     0.194 HD
ENDROOT
BRANCH   1   7
ATOM      7  N   UNL     1       4.862   4.155  -0.021  1.00  0.00    -0.246 N 
ATOM      8  H   UNL     1       5.758   3.647  -0.032  1.00  0.00     0.193 HD
BRANCH   7   9
ATOM      9  N   UNL     1       3.654   3.446  -0.013  1.00  0.00    -0.180 NA
ATOM     10  C   UNL     1       3.664   2.147  -0.021  1.00  0.00     0.145 C 
BRANCH  10  11
ATOM     11  C   UNL     1       2.393   1.401  -0.013  1.00  0.00     0.037 A 
ATOM     12  C   UNL     1      -0.017   1.379   0.010  1.00  0.00    -0.002 A 
ATOM     13  C   UNL     1       1.171   2.089   0.002  1.00  0.00     0.127 A 
ATOM     14  C   UNL     1       0.002  -0.004   0.002  1.00  0.00     0.008 A 
ATOM     15  C   UNL     1       1.205  -0.688  -0.014  1.00  0.00     0.001 A 
ATOM     16  C   UNL     1       2.398   0.005  -0.021  1.00  0.00     0.013 A 
BRANCH  12  17
ATOM     17  C   UNL     1      -1.333   2.113   0.020  1.00  0.00     0.066 C 
BRANCH  17  18
ATOM     18  C   UNL     1      -1.717   2.474  -1.392  1.00  0.00    -0.030 C 
ATOM     19  C   UNL     1      -2.880   2.104  -1.869  1.00  0.00     0.004 C 
ENDBRANCH  17  18
ENDBRANCH  12  17
BRANCH  13  20
ATOM     20  O   UNL     1       1.154   3.447   0.010  1.00  0.00    -0.507 OA
ATOM     21  H   UNL     1       0.627   3.690   0.812  1.00  0.00     0.293 HD
ENDBRANCH  13  20
ENDBRANCH  10  11
ENDBRANCH   7   9
ENDBRANCH   1   7
BRANCH   3  22
ATOM     22  S   UNL     1       6.546   9.083  -0.009  1.00  0.00    -0.074 SA
BRANCH  22  23
ATOM     23  C   UNL     1       5.370  10.464   0.009  1.00  0.00     0.178 C 
BRANCH  23  24
ATOM     24  C   UNL     1       6.127  11.768   0.009  1.00  0.00     0.231 C 
ATOM     25  O   UNL     1       7.339  11.765  -0.003  1.00  0.00    -0.274 OA
ATOM     26  N   UNL     1       5.455  12.937   0.021  1.00  0.00    -0.344 N 
ATOM     27  H   UNL     1       4.425  12.939   0.031  1.00  0.00     0.164 HD
BRANCH  26  28
ATOM     28  C   UNL     1       6.190  14.204   0.021  1.00  0.00     0.143 C 
BRANCH  28  29
ATOM     29  C   UNL     1       5.323  15.287  -0.566  1.00  0.00    -0.021 A 
ATOM     30  C   UNL     1       5.874  16.233  -1.409  1.00  0.00     0.006 A 
ATOM     31  C   UNL     1       3.974  15.332  -0.264  1.00  0.00     0.006 A 
ATOM     32  C   UNL     1       5.079  17.227  -1.948  1.00  0.00     0.000 A 
ATOM     33  C   UNL     1       3.180  16.329  -0.798  1.00  0.00     0.000 A 
ATOM     34  C   UNL     1       3.731  17.276  -1.642  1.00  0.00     0.000 A 
ENDBRANCH  28  29
BRANCH  28  35
ATOM     35  C   UNL     1       6.563  14.569   1.435  1.00  0.00    -0.021 A 
ATOM     36  C   UNL     1       7.804  15.115   1.704  1.00  0.00     0.006 A 
ATOM     37  C   UNL     1       5.661  14.363   2.462  1.00  0.00     0.006 A 
ATOM     38  C   UNL     1       8.146  15.450   3.000  1.00  0.00     0.000 A 
ATOM     39  C   UNL     1       6.005  14.693   3.760  1.00  0.00     0.000 A 
ATOM     40  C   UNL     1       7.246  15.239   4.029  1.00  0.00     0.000 A 
ENDBRANCH  28  35
ENDBRANCH  26  28
ENDBRANCH  23  24
ENDBRANCH  22  23
ENDBRANCH   3  22
TORSDOF 12
