REMARK SMILES C[NH2+][C@H]1CCc2cc(OC)c(OC)c(OC)c2-c2ccc(NCCCN3CCCc4ccccc43)c(=O)cc21
REMARK SMILES IDX 22 1 21 3 39 4 18 5 38 6 19 7 36 8 20 9 37 10 3 11 2 13 1 14
REMARK SMILES IDX 17 17 6 18 14 19 7 20 11 21 8 22 5 23 4 24 15 26 16 27 12 28
REMARK SMILES IDX 13 29 9 30 10 31 23 32 24 33 25 34 26 35 35 36 27 37 30 38
REMARK SMILES IDX 34 39 28 40 29 41 31 42 33 43 32 44
REMARK H PARENT 22 2 2 15 2 16
REMARK Flexibility Score: 90.00
ROOT
ATOM      1  N   UNL     1       5.700  -0.623  -1.541  1.00  0.00    -0.382 N 
ATOM      2  H   UNL     1       5.503  -0.761  -2.542  1.00  0.00     0.160 HD
ENDROOT
BRANCH   1   3
ATOM      3  C   UNL     1       4.700  -0.820  -0.604  1.00  0.00     0.082 A 
ATOM      4  C   UNL     1       2.001  -1.330   0.938  1.00  0.00     0.021 A 
ATOM      5  C   UNL     1       2.920  -1.083   1.958  1.00  0.00    -0.005 A 
ATOM      6  C   UNL     1       2.292  -1.385  -0.374  1.00  0.00     0.064 A 
ATOM      7  C   UNL     1       4.242  -0.754   1.793  1.00  0.00     0.011 A 
ATOM      8  C   UNL     1       3.448  -1.206  -1.077  1.00  0.00     0.202 A 
ATOM      9  C   UNL     1       5.022  -0.621   0.706  1.00  0.00     0.030 A 
ATOM     10  O   UNL     1       3.375  -1.411  -2.282  1.00  0.00    -0.288 OA
BRANCH   4  11
ATOM     11  C   UNL     1       0.552  -1.558   1.316  1.00  0.00     0.214 CG0
ATOM     12  G   UNL     1       0.316  -2.970   1.812  1.00  0.00     0.000 G0
BRANCH  11  13
ATOM     13  N   UNL     1      -0.297  -1.324   0.132  1.00  0.00    -0.342 N 
ATOM     14  C   UNL     1      -0.592   0.114  -0.010  1.00  0.00     0.331 C 
ATOM     15  H   UNL     1      -1.179  -1.845   0.237  1.00  0.00     0.346 HD
ATOM     16  H   UNL     1       0.193  -1.658  -0.710  1.00  0.00     0.346 HD
ENDBRANCH  11  13
ENDBRANCH   4  11
BRANCH   5  17
ATOM     17  C   UNL     1       2.421  -1.176   3.361  1.00  0.00     0.032 A 
ATOM     18  C   UNL     1       1.680  -2.281   3.766  1.00  0.00    -0.032 A 
ATOM     19  C   UNL     1       2.695  -0.143   4.263  1.00  0.00     0.172 A 
ATOM     20  C   UNL     1       1.200  -2.355   5.058  1.00  0.00     0.055 A 
ATOM     21  C   UNL     1       2.213  -0.226   5.563  1.00  0.00     0.203 A 
ATOM     22  C   UNL     1       1.465  -1.329   5.957  1.00  0.00     0.164 A 
BRANCH  18  23
ATOM     23  C   UNL     1       1.406  -3.397   2.791  1.00  0.00     0.043 C 
BRANCH  23  24
ATOM     24  C   UNL     1       0.316  -2.970   1.812  1.00  0.00     0.075 CG0
ATOM     25  G   UNL     1       0.552  -1.558   1.316  1.00  0.00     0.000 G0
ENDBRANCH  23  24
ENDBRANCH  18  23
BRANCH  19  26
ATOM     26  O   UNL     1       3.428   0.932   3.871  1.00  0.00    -0.492 OA
ATOM     27  C   UNL     1       2.705   2.083   3.429  1.00  0.00     0.278 C 
ENDBRANCH  19  26
BRANCH  21  28
ATOM     28  O   UNL     1       2.473   0.773   6.450  1.00  0.00    -0.490 OA
ATOM     29  C   UNL     1       3.660   0.651   7.235  1.00  0.00     0.278 C 
ENDBRANCH  21  28
BRANCH  22  30
ATOM     30  O   UNL     1       0.989  -1.406   7.228  1.00  0.00    -0.493 OA
ATOM     31  C   UNL     1       0.228  -2.566   7.567  1.00  0.00     0.278 C 
ENDBRANCH  22  30
ENDBRANCH   5  17
ENDBRANCH   1   3
BRANCH   1  32
ATOM     32  C   UNL     1       7.039  -0.216  -1.108  1.00  0.00     0.115 C 
BRANCH  32  33
ATOM     33  C   UNL     1       7.947  -0.068  -2.330  1.00  0.00     0.042 C 
BRANCH  33  34
ATOM     34  C   UNL     1       9.346   0.357  -1.879  1.00  0.00     0.118 C 
BRANCH  34  35
ATOM     35  N   UNL     1      10.218   0.499  -3.052  1.00  0.00    -0.371 N 
ATOM     36  C   UNL     1      11.472   0.986  -2.687  1.00  0.00     0.040 A 
ATOM     37  C   UNL     1       9.570   1.301  -4.093  1.00  0.00     0.117 C 
ATOM     38  C   UNL     1      12.213   1.836  -3.490  1.00  0.00    -0.025 A 
ATOM     39  C   UNL     1      11.987   0.587  -1.453  1.00  0.00     0.026 A 
ATOM     40  C   UNL     1      10.535   1.439  -5.277  1.00  0.00     0.026 C 
ATOM     41  C   UNL     1      11.709   2.312  -4.829  1.00  0.00     0.039 C 
ATOM     42  C   UNL     1      13.457   2.274  -3.067  1.00  0.00     0.006 A 
ATOM     43  C   UNL     1      13.225   1.030  -1.037  1.00  0.00     0.002 A 
ATOM     44  C   UNL     1      13.963   1.875  -1.846  1.00  0.00     0.000 A 
ENDBRANCH  34  35
ENDBRANCH  33  34
ENDBRANCH  32  33
ENDBRANCH   1  32
TORSDOF 9
