REMARK SMILES CCCc1n[nH]c2c1[C@@H](c1cccc(I)c1)C(C(=O)OCC)=C(N)O2
REMARK SMILES IDX 4 1 8 2 7 3 6 4 5 5 25 6 23 7 17 8 9 9 3 11 2 12 1 13 10 14
REMARK SMILES IDX 16 15 11 16 14 17 12 18 13 19 15 20 18 21 19 22 20 23 21 24
REMARK SMILES IDX 22 25 24 26
REMARK H PARENT 6 10 24 27 24 28
REMARK Flexibility Score: inf
ROOT
ATOM      1  C   UNL     1      -4.972  -0.629  -0.405  1.00  0.00     0.070 A 
ATOM      2  C   UNL     1      -3.632  -0.908  -0.176  1.00  0.00     0.050 A 
ATOM      3  C   UNL     1      -3.458  -2.260  -0.274  1.00  0.00     0.221 A 
ATOM      4  N   UNL     1      -4.653  -2.804  -0.553  1.00  0.00    -0.246 N 
ATOM      5  N   UNL     1      -5.591  -1.763  -0.633  1.00  0.00    -0.177 NA
ATOM      6  O   UNL     1      -2.252  -2.858  -0.103  1.00  0.00    -0.423 OA
ATOM      7  C   UNL     1      -1.159  -2.071  -0.102  1.00  0.00     0.204 C 
ATOM      8  C   UNL     1      -1.203  -0.721   0.003  1.00  0.00     0.109 C 
ATOM      9  C   UNL     1      -2.500   0.037   0.140  1.00  0.00     0.100 C 
ATOM     10  H   UNL     1      -4.847  -3.807  -0.686  1.00  0.00     0.193 HD
ENDROOT
BRANCH   1  11
ATOM     11  C   UNL     1      -5.606   0.738  -0.395  1.00  0.00     0.058 C 
BRANCH  11  12
ATOM     12  C   UNL     1      -6.090   1.066   1.019  1.00  0.00     0.003 C 
ATOM     13  C   UNL     1      -6.733   2.454   1.030  1.00  0.00     0.004 C 
ENDBRANCH  11  12
ENDBRANCH   1  11
BRANCH   9  14
ATOM     14  C   UNL     1      -2.640   0.553   1.549  1.00  0.00    -0.034 A 
ATOM     15  C   UNL     1      -2.748   1.912   1.780  1.00  0.00     0.019 A 
ATOM     16  C   UNL     1      -2.667  -0.333   2.610  1.00  0.00     0.005 A 
ATOM     17  C   UNL     1      -2.878   2.385   3.073  1.00  0.00     0.013 A 
ATOM     18  C   UNL     1      -2.792   0.141   3.903  1.00  0.00     0.001 A 
ATOM     19  C   UNL     1      -2.899   1.499   4.134  1.00  0.00     0.015 A 
ATOM     20  I   UNL     1      -3.042   4.444   3.423  1.00  0.00    -0.044 I 
ENDBRANCH   9  14
BRANCH   8  21
ATOM     21  C   UNL     1       0.001  -0.003  -0.011  1.00  0.00     0.340 C 
ATOM     22  O   UNL     1       0.363   0.560  -1.029  1.00  0.00    -0.246 OA
BRANCH  21  23
ATOM     23  O   UNL     1       0.761   0.064   1.104  1.00  0.00    -0.462 OA
BRANCH  23  24
ATOM     24  C   UNL     1       1.975   0.813   1.018  1.00  0.00     0.230 C 
ATOM     25  C   UNL     1       2.694   0.776   2.368  1.00  0.00     0.049 C 
ENDBRANCH  23  24
ENDBRANCH  21  23
ENDBRANCH   8  21
BRANCH   7  26
ATOM     26  N   UNL     1       0.067  -2.670  -0.212  1.00  0.00    -0.369 N 
ATOM     27  H   UNL     1       0.159  -3.693  -0.294  1.00  0.00     0.159 HD
ATOM     28  H   UNL     1       0.913  -2.082  -0.213  1.00  0.00     0.159 HD
ENDBRANCH   7  26
TORSDOF 7
