REMARK SMILES CNC(=O)NC(=O)[C@@H](Sc1nc2ccccc2c(=O)n1CC[NH+](C(C)C)C(C)C)c1ccccc1
REMARK SMILES IDX 20 1 18 2 19 3 17 4 16 5 15 6 14 7 13 8 12 9 11 10 10 11
REMARK SMILES IDX 21 12 22 13 23 14 24 16 25 17 26 18 27 19 28 20 29 21 9 22
REMARK SMILES IDX 8 23 30 24 35 25 31 26 34 27 32 28 33 29 6 30 7 31 5 32 3 33
REMARK SMILES IDX 4 35 2 36 1 37
REMARK H PARENT 23 15 5 34 2 38
REMARK Flexibility Score: inf
ROOT
ATOM      1  N   UNL     1      -0.685   1.931   2.659  1.00  0.00    -0.281 N 
ATOM      2  C   UNL     1      -0.763   0.768   3.346  1.00  0.00     0.262 A 
ATOM      3  O   UNL     1      -1.332  -0.203   2.881  1.00  0.00    -0.269 OA
ATOM      4  C   UNL     1      -0.131   0.719   4.671  1.00  0.00     0.066 A 
ATOM      5  C   UNL     1      -0.152  -0.434   5.455  1.00  0.00     0.016 A 
ATOM      6  C   UNL     1       0.448  -0.424   6.684  1.00  0.00     0.001 A 
ATOM      7  C   UNL     1       1.076   0.721   7.158  1.00  0.00     0.002 A 
ATOM      8  C   UNL     1       1.111   1.864   6.410  1.00  0.00     0.029 A 
ATOM      9  C   UNL     1       0.507   1.886   5.150  1.00  0.00     0.079 A 
ATOM     10  N   UNL     1       0.518   2.992   4.380  1.00  0.00    -0.224 NA
ATOM     11  C   UNL     1      -0.048   3.012   3.198  1.00  0.00     0.172 A 
ENDROOT
BRANCH   1  12
ATOM     12  C   UNL     1      -1.294   2.034   1.330  1.00  0.00     0.189 C 
BRANCH  12  13
ATOM     13  C   UNL     1      -0.267   1.639   0.267  1.00  0.00     0.284 C 
BRANCH  13  14
ATOM     14  N   UNL     1      -0.877   1.742  -1.065  1.00  0.00    -0.330 N 
ATOM     15  H   UNL     1      -1.296   2.679  -1.150  1.00  0.00     0.348 HD
BRANCH  14  16
ATOM     16  C   UNL     1       0.135   1.602  -2.120  1.00  0.00     0.177 C 
ATOM     17  C   UNL     1       0.778   2.964  -2.394  1.00  0.00     0.075 C 
ATOM     18  C   UNL     1       1.210   0.613  -1.668  1.00  0.00     0.075 C 
ENDBRANCH  14  16
BRANCH  14  19
ATOM     19  C   UNL     1      -1.950   0.752  -1.231  1.00  0.00     0.177 C 
ATOM     20  C   UNL     1      -2.741   1.065  -2.502  1.00  0.00     0.075 C 
ATOM     21  C   UNL     1      -1.341  -0.647  -1.341  1.00  0.00     0.075 C 
ENDBRANCH  14  19
ENDBRANCH  13  14
ENDBRANCH  12  13
ENDBRANCH   1  12
BRANCH  11  22
ATOM     22  S   UNL     1       0.016   4.503   2.261  1.00  0.00    -0.069 SA
BRANCH  22  23
ATOM     23  C   UNL     1       0.938   5.556   3.409  1.00  0.00     0.174 C 
BRANCH  23  24
ATOM     24  C   UNL     1       2.332   5.009   3.583  1.00  0.00    -0.025 A 
ATOM     25  C   UNL     1       2.772   4.625   4.836  1.00  0.00     0.005 A 
ATOM     26  C   UNL     1       3.168   4.887   2.489  1.00  0.00     0.005 A 
ATOM     27  C   UNL     1       4.050   4.123   4.995  1.00  0.00     0.000 A 
ATOM     28  C   UNL     1       4.448   4.390   2.649  1.00  0.00     0.000 A 
ATOM     29  C   UNL     1       4.888   4.006   3.902  1.00  0.00     0.000 A 
ENDBRANCH  23  24
BRANCH  23  30
ATOM     30  C   UNL     1       1.013   6.956   2.856  1.00  0.00     0.246 C 
ATOM     31  O   UNL     1       0.833   7.151   1.673  1.00  0.00    -0.273 OA
ATOM     32  N   UNL     1       1.280   7.991   3.677  1.00  0.00    -0.277 N 
ATOM     33  C   UNL     1       1.347   9.243   3.183  1.00  0.00     0.321 C 
ATOM     34  H   UNL     1       1.433   7.825   4.682  1.00  0.00     0.174 HD
ATOM     35  O   UNL     1       1.167   9.439   1.997  1.00  0.00    -0.248 OA
ATOM     36  N   UNL     1       1.615  10.278   4.004  1.00  0.00    -0.341 N 
ATOM     37  C   UNL     1       1.688  11.639   3.467  1.00  0.00     0.144 C 
ATOM     38  H   UNL     1       1.768  10.112   5.009  1.00  0.00     0.165 HD
ENDBRANCH  23  30
ENDBRANCH  22  23
ENDBRANCH  11  22
TORSDOF 9
