REMARK SMILES C[NH+](C)[C@@H](CNC(=O)CSCc1nc(=O)c2c(-c3cccs3)csc2[nH]1)c1ccsc1
REMARK SMILES IDX 9 1 7 2 6 3 8 5 5 6 4 7 2 8 1 9 3 10 27 12 31 13 28 14 30 15
REMARK SMILES IDX 29 16 10 17 11 18 12 19 26 20 13 21 25 22 14 24 16 25 24 26
REMARK SMILES IDX 15 27 17 28 23 29 18 30 22 31 19 32 21 33 20 34
REMARK H PARENT 6 4 2 11 26 23
REMARK Flexibility Score: inf
ROOT
ATOM      1  C   UNL     1      -4.670  -2.897  -2.656  1.00  0.00     0.169 C 
ENDROOT
BRANCH   1   2
ATOM      2  C   UNL     1      -3.319  -2.229  -2.637  1.00  0.00     0.230 C 
ATOM      3  N   UNL     1      -2.747  -1.899  -1.462  1.00  0.00    -0.349 N 
ATOM      4  H   UNL     1      -3.234  -2.103  -0.577  1.00  0.00     0.163 HD
ATOM      5  O   UNL     1      -2.746  -1.990  -3.678  1.00  0.00    -0.274 OA
BRANCH   3   6
ATOM      6  C   UNL     1      -1.434  -1.250  -1.443  1.00  0.00     0.186 C 
BRANCH   6   7
ATOM      7  C   UNL     1      -1.090  -0.837  -0.010  1.00  0.00     0.235 C 
BRANCH   7   8
ATOM      8  N   UNL     1      -2.012   0.218   0.430  1.00  0.00    -0.332 N 
ATOM      9  C   UNL     1      -2.409   1.073  -0.697  1.00  0.00     0.333 C 
ATOM     10  C   UNL     1      -3.189  -0.355   1.096  1.00  0.00     0.333 C 
ATOM     11  H   UNL     1      -1.516   0.807   1.114  1.00  0.00     0.348 HD
ENDBRANCH   7   8
BRANCH   7  12
ATOM     12  C   UNL     1       0.325  -0.320   0.037  1.00  0.00     0.022 A 
ATOM     13  C   UNL     1       0.621   0.918  -0.430  1.00  0.00     0.074 A 
ATOM     14  C   UNL     1       1.340  -1.100   0.558  1.00  0.00     0.021 A 
ATOM     15  S   UNL     1       2.380   1.011  -0.140  1.00  0.00    -0.152 S 
ATOM     16  C   UNL     1       2.602  -0.605   0.586  1.00  0.00     0.065 A 
ENDBRANCH   7  12
ENDBRANCH   6   7
ENDBRANCH   3   6
ENDBRANCH   1   2
BRANCH   1  17
ATOM     17  S   UNL     1      -5.164  -3.212  -4.373  1.00  0.00    -0.144 SA
BRANCH  17  18
ATOM     18  C   UNL     1      -6.788  -4.006  -4.223  1.00  0.00     0.145 C 
BRANCH  18  19
ATOM     19  C   UNL     1      -7.319  -4.325  -5.597  1.00  0.00     0.121 A 
ATOM     20  N   UNL     1      -6.607  -4.018  -6.648  1.00  0.00    -0.334 N 
ATOM     21  N   UNL     1      -8.527  -4.933  -5.721  1.00  0.00    -0.195 NA
ATOM     22  C   UNL     1      -7.046  -4.285  -7.875  1.00  0.00     0.107 A 
ATOM     23  H   UNL     1      -5.693  -3.561  -6.525  1.00  0.00     0.169 HD
ATOM     24  C   UNL     1      -9.040  -5.230  -6.929  1.00  0.00     0.282 A 
ATOM     25  C   UNL     1      -8.286  -4.907  -8.101  1.00  0.00     0.085 A 
ATOM     26  S   UNL     1      -6.398  -4.032  -9.507  1.00  0.00    -0.125 S 
ATOM     27  O   UNL     1     -10.128  -5.772  -7.023  1.00  0.00    -0.267 OA
ATOM     28  C   UNL     1      -8.619  -5.129  -9.504  1.00  0.00     0.017 A 
ATOM     29  C   UNL     1      -7.736  -4.732 -10.454  1.00  0.00     0.077 A 
BRANCH  28  30
ATOM     30  C   UNL     1      -9.894  -5.774  -9.882  1.00  0.00     0.036 A 
ATOM     31  S   UNL     1     -10.614  -7.288  -9.270  1.00  0.00    -0.144 S 
ATOM     32  C   UNL     1     -10.834  -5.362 -10.789  1.00  0.00     0.020 A 
ATOM     33  C   UNL     1     -12.101  -7.279 -10.257  1.00  0.00     0.065 A 
ATOM     34  C   UNL     1     -11.956  -6.139 -10.979  1.00  0.00     0.012 A 
ENDBRANCH  28  30
ENDBRANCH  18  19
ENDBRANCH  17  18
ENDBRANCH   1  17
TORSDOF 9
