REMARK SMILES CCN(Cc1ccccc1)c1ccc([C@H]2NC(=O)NC(c3ccccc3)=C2c2nc3ccccc3s2)cc1
REMARK SMILES IDX 11 1 12 2 13 3 14 4 37 5 38 6 3 7 2 8 1 9 4 10 5 11 10 12
REMARK SMILES IDX 6 13 9 14 7 15 8 16 15 17 16 18 27 19 17 20 20 22 19 23
REMARK SMILES IDX 18 24 28 26 36 27 29 28 35 29 30 30 34 31 31 32 33 33 32 34
REMARK SMILES IDX 21 35 26 36 22 37 25 38 23 39 24 40
REMARK H PARENT 16 21 19 25
REMARK Flexibility Score: inf
ROOT
ATOM      1  C   UNL     1      -3.768  -0.699  -0.948  1.00  0.00     0.037 A 
ATOM      2  C   UNL     1      -3.622  -0.531   0.423  1.00  0.00     0.026 A 
ATOM      3  C   UNL     1      -2.384  -0.223   0.951  1.00  0.00     0.008 A 
ATOM      4  C   UNL     1      -1.290  -0.082   0.117  1.00  0.00    -0.021 A 
ATOM      5  C   UNL     1      -1.433  -0.243  -1.249  1.00  0.00     0.008 A 
ATOM      6  C   UNL     1      -2.668  -0.556  -1.784  1.00  0.00     0.026 A 
ENDROOT
BRANCH   1   7
ATOM      7  N   UNL     1      -5.019  -1.010  -1.486  1.00  0.00    -0.367 N 
BRANCH   7   8
ATOM      8  C   UNL     1      -6.179  -1.160  -0.603  1.00  0.00     0.113 C 
ATOM      9  C   UNL     1      -6.872   0.194  -0.438  1.00  0.00     0.027 C 
ENDBRANCH   7   8
BRANCH   7  10
ATOM     10  C   UNL     1      -5.172  -1.187  -2.932  1.00  0.00     0.152 C 
BRANCH  10  11
ATOM     11  C   UNL     1      -4.939  -2.632  -3.289  1.00  0.00    -0.029 A 
ATOM     12  C   UNL     1      -5.999  -3.520  -3.302  1.00  0.00     0.005 A 
ATOM     13  C   UNL     1      -3.667  -3.070  -3.608  1.00  0.00     0.005 A 
ATOM     14  C   UNL     1      -5.786  -4.846  -3.630  1.00  0.00     0.000 A 
ATOM     15  C   UNL     1      -3.453  -4.397  -3.930  1.00  0.00     0.000 A 
ATOM     16  C   UNL     1      -4.513  -5.284  -3.944  1.00  0.00     0.000 A 
ENDBRANCH  10  11
ENDBRANCH   7  10
ENDBRANCH   1   7
BRANCH   4  17
ATOM     17  C   UNL     1       0.059   0.254   0.697  1.00  0.00     0.150 C 
ATOM     18  N   UNL     1       1.048  -0.660   0.102  1.00  0.00    -0.327 N 
ATOM     19  C   UNL     1       0.291   1.739   0.507  1.00  0.00     0.039 C 
ATOM     20  C   UNL     1       2.092  -0.138  -0.570  1.00  0.00     0.320 C 
ATOM     21  H   UNL     1       0.943  -1.681   0.198  1.00  0.00     0.166 HD
ATOM     22  C   UNL     1       1.390   2.123  -0.195  1.00  0.00     0.058 C 
ATOM     23  N   UNL     1       2.260   1.182  -0.715  1.00  0.00    -0.307 N 
ATOM     24  O   UNL     1       2.909  -0.892  -1.061  1.00  0.00    -0.248 OA
ATOM     25  H   UNL     1       3.081   1.514  -1.242  1.00  0.00     0.171 HD
BRANCH  19  26
ATOM     26  C   UNL     1      -0.638   2.726   1.056  1.00  0.00     0.125 A 
ATOM     27  S   UNL     1      -0.487   4.506   1.099  1.00  0.00    -0.114 S 
ATOM     28  N   UNL     1      -1.806   2.529   1.640  1.00  0.00    -0.236 NA
ATOM     29  C   UNL     1      -2.026   4.841   1.919  1.00  0.00     0.055 A 
ATOM     30  C   UNL     1      -2.559   3.543   2.106  1.00  0.00     0.082 A 
ATOM     31  C   UNL     1      -2.680   5.974   2.334  1.00  0.00     0.021 A 
ATOM     32  C   UNL     1      -3.817   3.472   2.752  1.00  0.00     0.030 A 
ATOM     33  C   UNL     1      -3.908   5.861   2.961  1.00  0.00     0.002 A 
ATOM     34  C   UNL     1      -4.456   4.601   3.160  1.00  0.00     0.002 A 
ENDBRANCH  19  26
BRANCH  22  35
ATOM     35  C   UNL     1       1.657   3.560  -0.405  1.00  0.00    -0.001 A 
ATOM     36  C   UNL     1       2.747   4.170   0.220  1.00  0.00     0.010 A 
ATOM     37  C   UNL     1       0.824   4.314  -1.235  1.00  0.00     0.010 A 
ATOM     38  C   UNL     1       2.990   5.513   0.018  1.00  0.00     0.001 A 
ATOM     39  C   UNL     1       1.077   5.657  -1.423  1.00  0.00     0.001 A 
ATOM     40  C   UNL     1       2.158   6.255  -0.801  1.00  0.00     0.000 A 
ENDBRANCH  22  35
ENDBRANCH   4  17
TORSDOF 7
