REMARK SMILES Cc1nc2nc(C(F)(F)F)nn2c(C)c1CCC(=O)Nc1ccc2c(c1)nc1n2CCCCC1
REMARK SMILES IDX 18 1 19 2 20 3 17 5 16 6 15 7 1 8 2 9 3 10 4 11 13 12 12 13
REMARK SMILES IDX 5 14 14 15 11 16 6 17 7 18 8 19 9 20 10 21 21 22 26 23 22 24
REMARK SMILES IDX 25 25 23 26 24 27 27 28 29 29 28 30 30 31 31 32 34 34 33 35
REMARK SMILES IDX 32 36
REMARK H PARENT 20 4
REMARK Flexibility Score: 90.00
ROOT
ATOM      1  C   UNL     1       1.088  -4.226  -1.476  1.00  0.00     0.224 C 
ATOM      2  O   UNL     1       0.950  -4.852  -0.446  1.00  0.00    -0.275 OA
ATOM      3  N   UNL     1       1.258  -4.879  -2.643  1.00  0.00    -0.326 N 
ATOM      4  H   UNL     1       1.294  -4.353  -3.527  1.00  0.00     0.169 HD
ENDROOT
BRANCH   1   5
ATOM      5  C   UNL     1       1.072  -2.720  -1.451  1.00  0.00     0.105 C 
BRANCH   5   6
ATOM      6  C   UNL     1       0.866  -2.236  -0.014  1.00  0.00     0.049 C 
BRANCH   6   7
ATOM      7  C   UNL     1       0.849  -0.729   0.011  1.00  0.00    -0.005 A 
ATOM      8  C   UNL     1      -1.642  -0.791  -0.340  1.00  0.00     0.067 C 
ATOM      9  C   UNL     1      -0.355  -0.031  -0.145  1.00  0.00     0.046 A 
ATOM     10  N   UNL     1      -0.368   1.282  -0.123  1.00  0.00    -0.216 NA
ATOM     11  C   UNL     1       0.762   1.977   0.049  1.00  0.00     0.253 A 
ATOM     12  C   UNL     1       2.002  -0.032   0.185  1.00  0.00     0.048 A 
ATOM     13  N   UNL     1       1.955   1.327   0.203  1.00  0.00    -0.201 N 
ATOM     14  N   UNL     1       1.015   3.280   0.107  1.00  0.00    -0.185 NA
ATOM     15  C   UNL     1       3.313  -0.754   0.355  1.00  0.00     0.067 C 
ATOM     16  N   UNL     1       2.930   2.321   0.358  1.00  0.00    -0.140 NA
ATOM     17  C   UNL     1       2.313   3.477   0.293  1.00  0.00     0.257 A 
BRANCH  17  18
ATOM     18  C   UNL     1       2.979   4.824   0.410  1.00  0.00     0.453 C 
ATOM     19  F   UNL     1       3.058   5.416  -0.855  1.00  0.00    -0.163 F 
ATOM     20  F   UNL     1       2.229   5.642   1.262  1.00  0.00    -0.163 F 
ATOM     21  F   UNL     1       4.267   4.663   0.932  1.00  0.00    -0.163 F 
ENDBRANCH  17  18
ENDBRANCH   6   7
ENDBRANCH   5   6
ENDBRANCH   1   5
BRANCH   3  22
ATOM     22  C   UNL     1       1.384  -6.275  -2.653  1.00  0.00     0.043 A 
ATOM     23  C   UNL     1       2.013  -6.915  -1.602  1.00  0.00     0.056 A 
ATOM     24  C   UNL     1       0.880  -7.008  -3.725  1.00  0.00     0.028 A 
ATOM     25  C   UNL     1       2.134  -8.307  -1.612  1.00  0.00     0.091 A 
ATOM     26  C   UNL     1       1.000  -8.380  -3.748  1.00  0.00     0.031 A 
ATOM     27  C   UNL     1       1.625  -9.039  -2.699  1.00  0.00     0.068 A 
ATOM     28  N   UNL     1       2.678  -9.204  -0.751  1.00  0.00    -0.233 NA
ATOM     29  N   UNL     1       1.906 -10.364  -2.428  1.00  0.00    -0.328 N 
ATOM     30  C   UNL     1       2.541 -10.411  -1.225  1.00  0.00     0.109 A 
BRANCH  29  31
ATOM     31  C   UNL     1       1.587 -11.509  -3.286  1.00  0.00     0.124 C 
BRANCH  31  32
ATOM     32  C   UNL     1       1.410 -12.762  -2.426  1.00  0.00     0.022 CG0
ATOM     33  G   UNL     1       2.756 -13.465  -2.262  1.00  0.00     0.000 G0
ENDBRANCH  31  32
ENDBRANCH  29  31
BRANCH  30  34
ATOM     34  C   UNL     1       3.010 -11.674  -0.542  1.00  0.00     0.075 C 
BRANCH  34  35
ATOM     35  C   UNL     1       3.751 -12.551  -1.553  1.00  0.00     0.008 C 
BRANCH  35  36
ATOM     36  C   UNL     1       2.756 -13.465  -2.262  1.00  0.00     0.002 CG0
ATOM     37  G   UNL     1       1.410 -12.762  -2.426  1.00  0.00     0.000 G0
ENDBRANCH  35  36
ENDBRANCH  34  35
ENDBRANCH  30  34
ENDBRANCH   3  22
TORSDOF 5
