REMARK SMILES CC(C)[N@H+](CCCNC(=O)[C@H]1CC[C@@H](CNS(=O)(=O)c2ccccc2)CC1)Cc1ccccc1
REMARK SMILES IDX 8 1 9 2 10 3 7 5 6 6 5 7 4 8 2 10 1 11 3 12 28 13 29 14
REMARK SMILES IDX 34 15 30 16 33 17 31 18 32 19 11 20 27 21 12 22 26 23 13 24
REMARK SMILES IDX 14 25 15 26 16 27 17 29 18 30 19 31 20 32 25 33 21 34 24 35
REMARK SMILES IDX 22 36 23 37
REMARK H PARENT 8 4 4 9 16 28
REMARK Flexibility Score: inf
ROOT
ATOM      1  N   UNL     1      -1.010  -1.034   3.775  1.00  0.00    -0.356 N 
ATOM      2  C   UNL     1      -1.499  -2.042   4.524  1.00  0.00     0.223 C 
ATOM      3  O   UNL     1      -1.891  -3.058   3.991  1.00  0.00    -0.275 OA
ATOM      4  H   UNL     1      -0.678  -0.170   4.228  1.00  0.00     0.163 HD
ENDROOT
BRANCH   1   5
ATOM      5  C   UNL     1      -0.953  -1.165   2.317  1.00  0.00     0.121 C 
BRANCH   5   6
ATOM      6  C   UNL     1      -0.361   0.111   1.713  1.00  0.00     0.083 C 
BRANCH   6   7
ATOM      7  C   UNL     1      -0.301  -0.027   0.191  1.00  0.00     0.264 C 
BRANCH   7   8
ATOM      8  N   UNL     1       0.086   1.278  -0.387  1.00  0.00    -0.329 N 
ATOM      9  H   UNL     1      -0.404   2.027   0.121  1.00  0.00     0.348 HD
BRANCH   8  10
ATOM     10  C   UNL     1       1.544   1.478  -0.249  1.00  0.00     0.177 C 
ATOM     11  C   UNL     1       1.816   2.172   1.088  1.00  0.00     0.075 C 
ATOM     12  C   UNL     1       2.273   0.133  -0.282  1.00  0.00     0.075 C 
ENDBRANCH   8  10
BRANCH   8  13
ATOM     13  C   UNL     1      -0.298   1.333  -1.813  1.00  0.00     0.299 C 
BRANCH  13  14
ATOM     14  C   UNL     1      -0.246   2.767  -2.273  1.00  0.00     0.006 A 
ATOM     15  C   UNL     1       0.892   3.255  -2.888  1.00  0.00     0.009 A 
ATOM     16  C   UNL     1      -1.339   3.593  -2.085  1.00  0.00     0.009 A 
ATOM     17  C   UNL     1       0.939   4.570  -3.310  1.00  0.00     0.001 A 
ATOM     18  C   UNL     1      -1.289   4.910  -2.503  1.00  0.00     0.001 A 
ATOM     19  C   UNL     1      -0.151   5.397  -3.118  1.00  0.00     0.000 A 
ENDBRANCH  13  14
ENDBRANCH   8  13
ENDBRANCH   7   8
ENDBRANCH   6   7
ENDBRANCH   5   6
ENDBRANCH   1   5
BRANCH   2  20
ATOM     20  C   UNL     1      -1.559  -1.907   6.024  1.00  0.00     0.078 C 
ATOM     21  C   UNL     1      -2.150  -3.182   6.628  1.00  0.00     0.014 C 
ATOM     22  C   UNL     1      -0.147  -1.689   6.573  1.00  0.00     0.014 C 
ATOM     23  C   UNL     1      -1.269  -4.377   6.258  1.00  0.00     0.006 C 
ATOM     24  C   UNL     1       0.734  -2.884   6.203  1.00  0.00     0.006 C 
ATOM     25  C   UNL     1       0.143  -4.160   6.807  1.00  0.00     0.004 C 
BRANCH  25  26
ATOM     26  C   UNL     1       1.024  -5.355   6.437  1.00  0.00     0.102 C 
BRANCH  26  27
ATOM     27  N   UNL     1       2.340  -5.203   7.063  1.00  0.00    -0.211 NA
ATOM     28  H   UNL     1       2.625  -4.292   7.447  1.00  0.00     0.141 HD
BRANCH  27  29
ATOM     29  S   UNL     1       3.368  -6.498   7.152  1.00  0.00     0.240 S 
ATOM     30  O   UNL     1       4.555  -6.032   7.779  1.00  0.00    -0.207 OA
ATOM     31  O   UNL     1       2.610  -7.584   7.668  1.00  0.00    -0.207 OA
BRANCH  29  32
ATOM     32  C   UNL     1       3.807  -6.930   5.501  1.00  0.00     0.082 A 
ATOM     33  C   UNL     1       4.914  -6.353   4.907  1.00  0.00     0.022 A 
ATOM     34  C   UNL     1       3.047  -7.849   4.802  1.00  0.00     0.022 A 
ATOM     35  C   UNL     1       5.258  -6.692   3.612  1.00  0.00     0.001 A 
ATOM     36  C   UNL     1       3.389  -8.184   3.505  1.00  0.00     0.001 A 
ATOM     37  C   UNL     1       4.495  -7.607   2.910  1.00  0.00     0.000 A 
ENDBRANCH  29  32
ENDBRANCH  27  29
ENDBRANCH  26  27
ENDBRANCH  25  26
ENDBRANCH   2  20
TORSDOF 12
