REMARK SMILES CCc1cc(-c2nn(C[NH+]3CCCCC3)cc2-c2nc3ccccc3n2C)c(O)c(C[NH+]2CCCCC2)c1O
REMARK SMILES IDX 3 1 4 2 5 3 28 4 30 5 38 6 2 7 1 8 39 9 31 11 32 12 37 13
REMARK SMILES IDX 33 14 36 16 34 17 35 18 6 19 7 20 17 21 8 22 16 23 18 24
REMARK SMILES IDX 26 25 19 26 25 27 27 28 20 29 24 30 21 31 23 32 22 33 9 34
REMARK SMILES IDX 10 35 15 36 11 37 14 39 12 40 13 41 29 42
REMARK H PARENT 39 10 32 15 10 38 29 43
REMARK Flexibility Score: inf
ROOT
ATOM      1  C   UNL     1       2.641   1.425  -3.207  1.00  0.00    -0.005 A 
ATOM      2  C   UNL     1       2.506   2.542  -2.410  1.00  0.00     0.021 A 
ATOM      3  C   UNL     1       1.440   2.635  -1.517  1.00  0.00     0.046 A 
ATOM      4  C   UNL     1       0.510   1.594  -1.433  1.00  0.00     0.137 A 
ATOM      5  C   UNL     1       0.653   0.476  -2.237  1.00  0.00     0.091 A 
ATOM      6  C   UNL     1       1.718   0.391  -3.123  1.00  0.00     0.131 A 
ENDROOT
BRANCH   1   7
ATOM      7  C   UNL     1       3.795   1.325  -4.172  1.00  0.00     0.036 C 
ATOM      8  C   UNL     1       3.348   1.807  -5.553  1.00  0.00     0.009 C 
ENDBRANCH   1   7
BRANCH   6   9
ATOM      9  O   UNL     1       1.857  -0.707  -3.911  1.00  0.00    -0.507 OA
ATOM     10  H   UNL     1       2.762  -1.054  -3.710  1.00  0.00     0.293 HD
ENDBRANCH   6   9
BRANCH   5  11
ATOM     11  C   UNL     1      -0.347  -0.648  -2.151  1.00  0.00     0.307 C 
BRANCH  11  12
ATOM     12  N   UNL     1      -1.439  -0.406  -3.103  1.00  0.00    -0.331 N 
ATOM     13  C   UNL     1      -2.306  -1.585  -3.220  1.00  0.00     0.262 C 
ATOM     14  C   UNL     1      -2.211   0.785  -2.728  1.00  0.00     0.262 C 
ATOM     15  H   UNL     1      -1.020  -0.231  -4.028  1.00  0.00     0.348 HD
ATOM     16  C   UNL     1      -3.341  -1.352  -4.323  1.00  0.00     0.062 C 
ATOM     17  C   UNL     1      -3.243   1.090  -3.815  1.00  0.00     0.062 C 
ATOM     18  C   UNL     1      -4.175  -0.114  -3.979  1.00  0.00     0.012 C 
ENDBRANCH  11  12
ENDBRANCH   5  11
BRANCH   3  19
ATOM     19  C   UNL     1       1.292   3.835  -0.659  1.00  0.00     0.107 A 
ATOM     20  N   UNL     1       0.190   4.525  -0.463  1.00  0.00    -0.167 NA
ATOM     21  C   UNL     1       2.344   4.473   0.135  1.00  0.00     0.064 A 
ATOM     22  N   UNL     1       0.469   5.580   0.411  1.00  0.00    -0.221 N 
ATOM     23  C   UNL     1       1.766   5.542   0.762  1.00  0.00     0.127 A 
BRANCH  21  24
ATOM     24  C   UNL     1       3.755   4.048   0.236  1.00  0.00     0.144 A 
ATOM     25  N   UNL     1       4.806   4.646  -0.406  1.00  0.00    -0.327 N 
ATOM     26  N   UNL     1       4.190   3.044   0.959  1.00  0.00    -0.228 NA
ATOM     27  C   UNL     1       5.949   3.954  -0.051  1.00  0.00     0.068 A 
ATOM     28  C   UNL     1       4.733   5.804  -1.300  1.00  0.00     0.152 C 
ATOM     29  C   UNL     1       5.534   2.931   0.819  1.00  0.00     0.089 A 
ATOM     30  C   UNL     1       7.292   4.084  -0.373  1.00  0.00     0.028 A 
ATOM     31  C   UNL     1       6.484   2.054   1.351  1.00  0.00     0.030 A 
ATOM     32  C   UNL     1       8.212   3.208   0.164  1.00  0.00     0.002 A 
ATOM     33  C   UNL     1       7.803   2.198   1.022  1.00  0.00     0.002 A 
ENDBRANCH  21  24
BRANCH  22  34
ATOM     34  C   UNL     1      -0.503   6.573   0.875  1.00  0.00     0.413 C 
BRANCH  34  35
ATOM     35  N   UNL     1      -0.601   7.659  -0.109  1.00  0.00    -0.316 N 
ATOM     36  C   UNL     1      -1.728   8.549   0.198  1.00  0.00     0.263 C 
ATOM     37  C   UNL     1       0.659   8.409  -0.193  1.00  0.00     0.263 C 
ATOM     38  H   UNL     1      -0.777   7.237  -1.032  1.00  0.00     0.349 HD
ATOM     39  C   UNL     1      -1.888   9.578  -0.923  1.00  0.00     0.062 C 
ATOM     40  C   UNL     1       0.571   9.434  -1.325  1.00  0.00     0.062 C 
ATOM     41  C   UNL     1      -0.595  10.389  -1.053  1.00  0.00     0.012 C 
ENDBRANCH  34  35
ENDBRANCH  22  34
ENDBRANCH   3  19
BRANCH   4  42
ATOM     42  O   UNL     1      -0.535   1.681  -0.569  1.00  0.00    -0.507 OA
ATOM     43  H   UNL     1      -0.997   2.522  -0.815  1.00  0.00     0.293 HD
ENDBRANCH   4  42
TORSDOF 9
