REMARK SMILES CC(C)(C)N(CCO)C(=O)c1ccccc1CC[C@H](O)Cc1ccccc1C(=O)N(CCO)C(C)(C)c1ccc2ccccc2c1
REMARK SMILES IDX 18 1 17 2 16 3 11 4 12 5 15 6 13 7 14 8 9 9 10 10 5 11 2 12
REMARK SMILES IDX 1 13 3 14 4 15 6 16 7 17 8 18 19 20 21 21 22 22 27 23 23 24
REMARK SMILES IDX 26 25 24 26 25 27 28 28 29 29 30 30 31 31 32 32 33 33 34 35
REMARK SMILES IDX 35 36 36 37 37 38 46 39 38 40 45 41 39 42 40 43 44 44 41 45
REMARK SMILES IDX 43 46 42 47 20 48
REMARK H PARENT 8 19 33 34 20 49
REMARK Flexibility Score: inf
ROOT
ATOM      1  C   UNL     1       7.644  -1.315  -3.998  1.00  0.00     0.037 C 
ENDROOT
BRANCH   1   2
ATOM      2  C   UNL     1       7.049  -1.972  -5.245  1.00  0.00     0.039 C 
BRANCH   2   3
ATOM      3  C   UNL     1       7.020  -3.467  -5.059  1.00  0.00    -0.035 A 
ATOM      4  C   UNL     1       5.916  -4.077  -4.462  1.00  0.00     0.043 A 
ATOM      5  C   UNL     1       5.897  -5.462  -4.293  1.00  0.00     0.014 A 
ATOM      6  C   UNL     1       8.083  -4.238  -5.483  1.00  0.00     0.004 A 
ATOM      7  C   UNL     1       6.969  -6.220  -4.716  1.00  0.00     0.001 A 
ATOM      8  C   UNL     1       8.061  -5.610  -5.308  1.00  0.00     0.000 A 
BRANCH   4   9
ATOM      9  C   UNL     1       4.770  -3.258  -4.010  1.00  0.00     0.254 C 
ATOM     10  O   UNL     1       4.927  -2.417  -3.147  1.00  0.00    -0.269 OA
BRANCH   9  11
ATOM     11  N   UNL     1       3.552  -3.444  -4.556  1.00  0.00    -0.332 N 
BRANCH  11  12
ATOM     12  C   UNL     1       2.438  -2.573  -4.176  1.00  0.00     0.035 C 
ATOM     13  C   UNL     1       2.862  -1.110  -4.320  1.00  0.00     0.034 C 
ATOM     14  C   UNL     1       1.240  -2.849  -5.087  1.00  0.00     0.034 C 
ATOM     15  C   UNL     1       2.047  -2.849  -2.723  1.00  0.00     0.034 C 
ENDBRANCH  11  12
BRANCH  11  16
ATOM     16  C   UNL     1       3.342  -4.519  -5.530  1.00  0.00     0.148 C 
BRANCH  16  17
ATOM     17  C   UNL     1       2.792  -5.754  -4.815  1.00  0.00     0.177 C 
BRANCH  17  18
ATOM     18  O   UNL     1       1.510  -5.452  -4.260  1.00  0.00    -0.395 OA
ATOM     19  H   UNL     1       0.890  -5.186  -4.985  1.00  0.00     0.210 HD
ENDBRANCH  17  18
ENDBRANCH  16  17
ENDBRANCH  11  16
ENDBRANCH   9  11
ENDBRANCH   4   9
ENDBRANCH   2   3
ENDBRANCH   1   2
BRANCH   1  20
ATOM     20  C   UNL     1       7.674   0.203  -4.188  1.00  0.00     0.119 C 
BRANCH  20  21
ATOM     21  C   UNL     1       8.152   0.869  -2.896  1.00  0.00     0.068 C 
BRANCH  21  22
ATOM     22  C   UNL     1       8.064   2.367  -3.040  1.00  0.00    -0.033 A 
ATOM     23  C   UNL     1       6.885   3.034  -2.705  1.00  0.00     0.043 A 
ATOM     24  C   UNL     1       9.148   3.081  -3.509  1.00  0.00     0.004 A 
ATOM     25  C   UNL     1       6.814   4.422  -2.836  1.00  0.00     0.014 A 
ATOM     26  C   UNL     1       9.071   4.456  -3.637  1.00  0.00     0.000 A 
ATOM     27  C   UNL     1       7.906   5.124  -3.301  1.00  0.00     0.001 A 
BRANCH  23  28
ATOM     28  C   UNL     1       5.719   2.275  -2.206  1.00  0.00     0.254 C 
ATOM     29  O   UNL     1       5.232   1.393  -2.886  1.00  0.00    -0.269 OA
BRANCH  28  30
ATOM     30  N   UNL     1       5.195   2.561  -0.998  1.00  0.00    -0.327 N 
BRANCH  30  31
ATOM     31  C   UNL     1       5.712   3.692  -0.225  1.00  0.00     0.149 C 
BRANCH  31  32
ATOM     32  C   UNL     1       6.779   3.197   0.753  1.00  0.00     0.177 C 
BRANCH  32  33
ATOM     33  O   UNL     1       7.899   2.695   0.022  1.00  0.00    -0.395 OA
ATOM     34  H   UNL     1       8.278   3.417  -0.540  1.00  0.00     0.210 HD
ENDBRANCH  32  33
ENDBRANCH  31  32
ENDBRANCH  30  31
BRANCH  30  35
ATOM     35  C   UNL     1       4.108   1.740  -0.458  1.00  0.00     0.063 C 
ATOM     36  C   UNL     1       3.730   2.246   0.936  1.00  0.00     0.040 C 
ATOM     37  C   UNL     1       4.568   0.283  -0.364  1.00  0.00     0.040 C 
BRANCH  35  38
ATOM     38  C   UNL     1       2.910   1.831  -1.367  1.00  0.00    -0.022 A 
ATOM     39  C   UNL     1       1.854   0.996  -1.170  1.00  0.00     0.014 A 
ATOM     40  C   UNL     1       2.901   2.768  -2.398  1.00  0.00     0.007 A 
ATOM     41  C   UNL     1       0.737   1.073  -2.020  1.00  0.00    -0.018 A 
ATOM     42  C   UNL     1       1.835   2.876  -3.238  1.00  0.00     0.009 A 
ATOM     43  C   UNL     1       0.725   2.031  -3.065  1.00  0.00    -0.018 A 
ATOM     44  C   UNL     1      -0.374   0.232  -1.844  1.00  0.00     0.009 A 
ATOM     45  C   UNL     1      -0.394   2.113  -3.911  1.00  0.00     0.009 A 
ATOM     46  C   UNL     1      -1.441   0.340  -2.683  1.00  0.00     0.001 A 
ATOM     47  C   UNL     1      -1.450   1.278  -3.713  1.00  0.00     0.001 A 
ENDBRANCH  35  38
ENDBRANCH  30  35
ENDBRANCH  28  30
ENDBRANCH  23  28
ENDBRANCH  21  22
ENDBRANCH  20  21
BRANCH  20  48
ATOM     48  O   UNL     1       8.568   0.534  -5.253  1.00  0.00    -0.393 OA
ATOM     49  H   UNL     1       8.259   0.103  -6.089  1.00  0.00     0.210 HD
ENDBRANCH  20  48
ENDBRANCH   1  20
TORSDOF 19
