REMARK SMILES Nn1c(SCC(=O)N2c3ccccc3Sc3ccccc32)nnc1-c1cccs1
REMARK SMILES IDX 4 1 5 2 6 3 11 4 10 5 12 6 9 7 13 8 14 9 8 10 15 11 21 12
REMARK SMILES IDX 16 13 20 14 7 15 17 16 19 17 18 18 3 19 2 20 22 21 24 22
REMARK SMILES IDX 23 23 1 24 25 27 29 28 26 29 28 30 27 31
REMARK H PARENT 1 25 1 26
REMARK Flexibility Score: inf
ROOT
ATOM      1  S   UNL     1       3.290   8.144   1.040  1.00  0.00    -0.074 SA
ENDROOT
BRANCH   1   2
ATOM      2  C   UNL     1       2.726   9.585   0.102  1.00  0.00     0.179 C 
BRANCH   2   3
ATOM      3  C   UNL     1       3.734  10.697   0.235  1.00  0.00     0.242 C 
ATOM      4  C   UNL     1       6.609  13.705  -0.397  1.00  0.00     0.002 A 
ATOM      5  C   UNL     1       5.652  12.707  -0.442  1.00  0.00     0.028 A 
ATOM      6  C   UNL     1       6.286  14.966   0.069  1.00  0.00     0.001 A 
ATOM      7  C   UNL     1       4.358  12.969  -0.019  1.00  0.00     0.063 A 
ATOM      8  C   UNL     1       4.998  15.238   0.495  1.00  0.00     0.017 A 
ATOM      9  C   UNL     1       4.037  14.245   0.451  1.00  0.00     0.036 A 
ATOM     10  N   UNL     1       3.383  11.964  -0.063  1.00  0.00    -0.278 N 
ATOM     11  S   UNL     1       2.385  14.562   0.987  1.00  0.00    -0.086 SA
ATOM     12  C   UNL     1       2.055  12.239  -0.413  1.00  0.00     0.063 A 
ATOM     13  C   UNL     1       1.447  13.425   0.014  1.00  0.00     0.036 A 
ATOM     14  C   UNL     1       1.328  11.339  -1.171  1.00  0.00     0.028 A 
ATOM     15  O   UNL     1       4.862  10.452   0.609  1.00  0.00    -0.273 OA
ATOM     16  C   UNL     1       0.135  13.700  -0.327  1.00  0.00     0.017 A 
ATOM     17  C   UNL     1       0.016  11.619  -1.509  1.00  0.00     0.002 A 
ATOM     18  C   UNL     1      -0.580  12.794  -1.091  1.00  0.00     0.001 A 
ENDBRANCH   2   3
ENDBRANCH   1   2
BRANCH   1  19
ATOM     19  C   UNL     1       1.962   7.031   0.719  1.00  0.00     0.210 A 
ATOM     20  N   UNL     1       1.846   5.751   1.186  1.00  0.00    -0.216 N 
ATOM     21  N   UNL     1       0.901   7.276  -0.015  1.00  0.00    -0.121 NA
ATOM     22  C   UNL     1       0.657   5.277   0.678  1.00  0.00     0.193 A 
ATOM     23  N   UNL     1       0.135   6.245  -0.044  1.00  0.00    -0.126 NA
BRANCH  20  24
ATOM     24  N   UNL     1       2.727   5.082   1.988  1.00  0.00    -0.335 N 
ATOM     25  H   UNL     1       3.562   5.620   2.258  1.00  0.00     0.178 HD
ATOM     26  H   UNL     1       2.584   4.114   2.309  1.00  0.00     0.178 HD
ENDBRANCH  20  24
BRANCH  22  27
ATOM     27  C   UNL     1       0.083   3.940   0.896  1.00  0.00     0.074 A 
ATOM     28  S   UNL     1       0.868   2.468   1.533  1.00  0.00    -0.140 S 
ATOM     29  C   UNL     1      -1.195   3.499   0.662  1.00  0.00     0.024 A 
ATOM     30  C   UNL     1      -0.539   1.374   1.448  1.00  0.00     0.065 A 
ATOM     31  C   UNL     1      -1.503   2.187   0.943  1.00  0.00     0.012 A 
ENDBRANCH  22  27
ENDBRANCH   1  19
TORSDOF 5
