REMARK SMILES O=C1CN(c2ccc(C[NH2+]Cc3ccc(-c4ccc(Br)cc4)s3)cc2)CCN1
REMARK SMILES IDX 10 1 9 4 8 5 7 6 6 7 24 8 5 9 25 10 4 11 3 12 26 13 2 14
REMARK SMILES IDX 27 15 28 16 1 17 11 19 12 20 23 21 13 22 15 23 14 24 16 25
REMARK SMILES IDX 22 26 17 27 21 28 18 29 19 30 20 31
REMARK H PARENT 10 2 10 3 28 18
REMARK Flexibility Score: inf
ROOT
ATOM      1  N   UNL     1       2.860   4.192  -1.388  1.00  0.00    -0.338 N 
ATOM      2  H   UNL     1       2.979   3.294  -1.879  1.00  0.00     0.346 HD
ATOM      3  H   UNL     1       2.125   4.735  -1.864  1.00  0.00     0.346 HD
ENDROOT
BRANCH   1   4
ATOM      4  C   UNL     1       2.452   3.935  -0.000  1.00  0.00     0.297 C 
BRANCH   4   5
ATOM      5  C   UNL     1       1.156   3.166   0.008  1.00  0.00     0.006 A 
ATOM      6  C   UNL     1       1.173   1.783   0.000  1.00  0.00     0.012 A 
ATOM      7  C   UNL     1      -0.013   1.076   0.008  1.00  0.00     0.026 A 
ATOM      8  C   UNL     1      -0.049   3.845   0.023  1.00  0.00     0.012 A 
ATOM      9  C   UNL     1      -1.224   1.755   0.017  1.00  0.00     0.037 A 
ATOM     10  C   UNL     1      -1.239   3.144   0.031  1.00  0.00     0.026 A 
BRANCH   9  11
ATOM     11  N   UNL     1      -2.426   1.042   0.019  1.00  0.00    -0.360 N 
ATOM     12  C   UNL     1      -2.483   0.109   1.152  1.00  0.00     0.216 C 
ATOM     13  C   UNL     1      -3.580   1.955   0.055  1.00  0.00     0.138 C 
ATOM     14  C   UNL     1      -3.840  -0.531   1.222  1.00  0.00     0.239 C 
ATOM     15  C   UNL     1      -4.848   1.156  -0.255  1.00  0.00     0.137 C 
ATOM     16  N   UNL     1      -4.908  -0.034   0.590  1.00  0.00    -0.353 N 
ATOM     17  O   UNL     1      -3.973  -1.542   1.880  1.00  0.00    -0.273 OA
ATOM     18  H   UNL     1      -5.814  -0.510   0.704  1.00  0.00     0.163 HD
ENDBRANCH   9  11
ENDBRANCH   4   5
ENDBRANCH   1   4
BRANCH   1  19
ATOM     19  C   UNL     1       4.122   4.941  -1.435  1.00  0.00     0.308 C 
BRANCH  19  20
ATOM     20  C   UNL     1       4.508   5.186  -2.871  1.00  0.00     0.059 A 
ATOM     21  S   UNL     1       5.503   4.173  -3.954  1.00  0.00    -0.134 S 
ATOM     22  C   UNL     1       4.183   6.230  -3.676  1.00  0.00     0.022 A 
ATOM     23  C   UNL     1       5.429   5.209  -5.406  1.00  0.00     0.035 A 
ATOM     24  C   UNL     1       4.655   6.251  -4.971  1.00  0.00     0.021 A 
BRANCH  23  25
ATOM     25  C   UNL     1       6.044   4.997  -6.734  1.00  0.00    -0.008 A 
ATOM     26  C   UNL     1       6.807   3.854  -6.978  1.00  0.00     0.011 A 
ATOM     27  C   UNL     1       5.859   5.936  -7.750  1.00  0.00     0.011 A 
ATOM     28  C   UNL     1       7.378   3.662  -8.219  1.00  0.00     0.016 A 
ATOM     29  C   UNL     1       6.440   5.735  -8.985  1.00  0.00     0.016 A 
ATOM     30  C   UNL     1       7.196   4.600  -9.221  1.00  0.00     0.018 A 
ATOM     31  Br  UNL     1       7.982   4.328 -10.919  1.00  0.00    -0.051 Br
ENDBRANCH  23  25
ENDBRANCH  19  20
ENDBRANCH   1  19
TORSDOF 6
