REMARK SMILES O=C(CSC1=N/C(=C\c2c(O)ccc3ccccc23)C(=O)N1c1ccccc1)Nc1ccc2cc[nH]c2c1
REMARK SMILES IDX 4 1 5 2 22 3 20 4 6 5 21 6 7 7 8 8 23 9 26 10 27 11 25 12
REMARK SMILES IDX 28 13 24 14 9 15 10 16 19 17 12 18 14 19 18 20 13 21 15 22
REMARK SMILES IDX 17 23 16 24 11 25 3 27 2 28 1 29 29 30 30 32 38 33 31 34
REMARK SMILES IDX 37 35 32 36 33 37 36 38 34 39 35 40
REMARK H PARENT 11 26 29 31 36 41
REMARK Flexibility Score: inf
ROOT
ATOM      1  S   UNL     1       1.558  -0.225   0.204  1.00  0.00    -0.077 SA
ENDROOT
BRANCH   1   2
ATOM      2  C   UNL     1       1.362  -1.944  -0.128  1.00  0.00     0.176 C 
ATOM      3  N   UNL     1       2.375  -2.780  -0.529  1.00  0.00    -0.254 N 
ATOM      4  C   UNL     1       1.866  -4.022  -0.685  1.00  0.00     0.283 C 
ATOM      5  N   UNL     1       0.231  -2.593  -0.031  1.00  0.00    -0.218 NA
ATOM      6  O   UNL     1       2.463  -5.026  -1.030  1.00  0.00    -0.266 OA
ATOM      7  C   UNL     1       0.435  -3.904  -0.359  1.00  0.00     0.132 C 
ATOM      8  C   UNL     1      -0.507  -4.912  -0.379  1.00  0.00     0.047 C 
BRANCH   3   9
ATOM      9  C   UNL     1       3.711  -2.409  -0.737  1.00  0.00     0.051 A 
ATOM     10  C   UNL     1       6.348  -1.678  -1.148  1.00  0.00     0.000 A 
ATOM     11  C   UNL     1       5.359  -1.198  -1.987  1.00  0.00     0.002 A 
ATOM     12  C   UNL     1       6.021  -2.523  -0.103  1.00  0.00     0.002 A 
ATOM     13  C   UNL     1       4.043  -1.565  -1.788  1.00  0.00     0.027 A 
ATOM     14  C   UNL     1       4.705  -2.890   0.105  1.00  0.00     0.027 A 
ENDBRANCH   3   9
BRANCH   8  15
ATOM     15  C   UNL     1      -1.852  -4.631  -0.035  1.00  0.00     0.026 A 
ATOM     16  C   UNL     1      -2.160  -3.945   1.147  1.00  0.00     0.123 A 
ATOM     17  C   UNL     1      -2.952  -5.058  -0.902  1.00  0.00    -0.007 A 
ATOM     18  C   UNL     1      -3.486  -3.667   1.474  1.00  0.00     0.047 A 
ATOM     19  C   UNL     1      -4.281  -4.756  -0.520  1.00  0.00    -0.018 A 
ATOM     20  C   UNL     1      -2.715  -5.752  -2.093  1.00  0.00     0.009 A 
ATOM     21  C   UNL     1      -4.517  -4.057   0.678  1.00  0.00     0.012 A 
ATOM     22  C   UNL     1      -5.341  -5.162  -1.347  1.00  0.00     0.009 A 
ATOM     23  C   UNL     1      -3.768  -6.132  -2.874  1.00  0.00     0.001 A 
ATOM     24  C   UNL     1      -5.076  -5.837  -2.501  1.00  0.00     0.001 A 
BRANCH  16  25
ATOM     25  O   UNL     1      -1.163  -3.542   1.974  1.00  0.00    -0.507 OA
ATOM     26  H   UNL     1      -0.573  -2.984   1.409  1.00  0.00     0.293 HD
ENDBRANCH  16  25
ENDBRANCH   8  15
ENDBRANCH   1   2
BRANCH   1  27
ATOM     27  C   UNL     1      -0.142   0.204   0.656  1.00  0.00     0.178 C 
BRANCH  27  28
ATOM     28  C   UNL     1      -0.217   1.671   0.991  1.00  0.00     0.234 C 
ATOM     29  O   UNL     1       0.779   2.359   0.930  1.00  0.00    -0.274 OA
ATOM     30  N   UNL     1      -1.394   2.220   1.353  1.00  0.00    -0.325 N 
ATOM     31  H   UNL     1      -2.256   1.656   1.325  1.00  0.00     0.169 HD
BRANCH  30  32
ATOM     32  C   UNL     1      -1.446   3.556   1.766  1.00  0.00     0.043 A 
ATOM     33  C   UNL     1      -0.378   4.103   2.456  1.00  0.00     0.052 A 
ATOM     34  C   UNL     1      -2.574   4.325   1.485  1.00  0.00     0.027 A 
ATOM     35  C   UNL     1      -0.427   5.432   2.862  1.00  0.00     0.047 A 
ATOM     36  C   UNL     1      -2.640   5.629   1.881  1.00  0.00     0.012 A 
ATOM     37  C   UNL     1      -1.570   6.200   2.574  1.00  0.00    -0.001 A 
ATOM     38  N   UNL     1       0.449   6.247   3.544  1.00  0.00    -0.361 N 
ATOM     39  C   UNL     1      -1.315   7.531   3.132  1.00  0.00     0.028 A 
ATOM     40  C   UNL     1      -0.097   7.494   3.695  1.00  0.00     0.083 A 
ATOM     41  H   UNL     1       1.377   5.961   3.889  1.00  0.00     0.166 HD
ENDBRANCH  30  32
ENDBRANCH  27  28
ENDBRANCH   1  27
TORSDOF 7
