REMARK SMILES S=c1n(CN2CCC(c3nnc4ccccn34)CC2)nc(-c2cccs2)n1-c1ccccc1
REMARK SMILES IDX 4 1 3 2 27 3 2 4 21 5 1 6 20 7 28 8 31 9 32 10 30 11 33 12
REMARK SMILES IDX 29 13 22 14 26 15 23 16 25 17 24 18 5 19 6 20 19 21 7 22
REMARK SMILES IDX 18 23 8 24 9 25 17 26 10 27 12 28 16 29 11 30 13 31 15 32
REMARK SMILES IDX 14 33
REMARK H PARENT
REMARK Flexibility Score: inf
ROOT
ATOM      1  C   UNL     1       0.636   8.705  -0.345  1.00  0.00     0.234 C 
ENDROOT
BRANCH   1   2
ATOM      2  N   UNL     1       1.031   7.310  -0.133  1.00  0.00    -0.223 N 
ATOM      3  N   UNL     1       2.207   5.529   0.302  1.00  0.00    -0.267 N 
ATOM      4  C   UNL     1       2.262   6.873   0.203  1.00  0.00     0.204 A 
ATOM      5  C   UNL     1       0.913   5.127   0.021  1.00  0.00     0.177 A 
ATOM      6  S   UNL     1       3.646   7.848   0.457  1.00  0.00    -0.038 S 
ATOM      7  N   UNL     1       0.200   6.188  -0.247  1.00  0.00    -0.149 NA
BRANCH   3   8
ATOM      8  C   UNL     1       3.276   4.686   0.632  1.00  0.00     0.050 A 
ATOM      9  C   UNL     1       5.388   3.022   1.284  1.00  0.00     0.000 A 
ATOM     10  C   UNL     1       4.300   3.122   2.133  1.00  0.00     0.002 A 
ATOM     11  C   UNL     1       5.421   3.751   0.110  1.00  0.00     0.002 A 
ATOM     12  C   UNL     1       3.247   3.956   1.813  1.00  0.00     0.027 A 
ATOM     13  C   UNL     1       4.369   4.583  -0.219  1.00  0.00     0.027 A 
ENDBRANCH   3   8
BRANCH   5  14
ATOM     14  C   UNL     1       0.425   3.737   0.018  1.00  0.00     0.072 A 
ATOM     15  S   UNL     1       1.361   2.217   0.001  1.00  0.00    -0.140 S 
ATOM     16  C   UNL     1      -0.866   3.275   0.028  1.00  0.00     0.024 A 
ATOM     17  C   UNL     1      -0.013   1.076   0.008  1.00  0.00     0.065 A 
ATOM     18  C   UNL     1      -1.081   1.915   0.017  1.00  0.00     0.012 A 
ENDBRANCH   5  14
ENDBRANCH   1   2
BRANCH   1  19
ATOM     19  N   UNL     1       0.817   9.038  -1.773  1.00  0.00    -0.284 NA
ATOM     20  C   UNL     1       2.255   9.036  -2.115  1.00  0.00     0.087 C 
ATOM     21  C   UNL     1       0.229  10.364  -2.060  1.00  0.00     0.087 C 
ATOM     22  C   UNL     1       2.409   9.266  -3.620  1.00  0.00     0.027 C 
ATOM     23  C   UNL     1       0.322  10.634  -3.563  1.00  0.00     0.027 C 
ATOM     24  C   UNL     1       1.793  10.618  -3.990  1.00  0.00     0.061 C 
BRANCH  24  25
ATOM     25  C   UNL     1       1.887  10.826  -5.479  1.00  0.00     0.140 A 
ATOM     26  N   UNL     1       2.534  11.843  -6.110  1.00  0.00    -0.286 N 
ATOM     27  N   UNL     1       1.368  10.057  -6.402  1.00  0.00    -0.134 NA
ATOM     28  C   UNL     1       2.356  11.625  -7.455  1.00  0.00     0.160 A 
ATOM     29  C   UNL     1       3.248  12.920  -5.673  1.00  0.00     0.095 A 
ATOM     30  N   UNL     1       1.634  10.522  -7.572  1.00  0.00    -0.130 NA
ATOM     31  C   UNL     1       2.915  12.520  -8.387  1.00  0.00     0.050 A 
ATOM     32  C   UNL     1       3.789  13.787  -6.555  1.00  0.00     0.019 A 
ATOM     33  C   UNL     1       3.624  13.590  -7.937  1.00  0.00     0.005 A 
ENDBRANCH  24  25
ENDBRANCH   1  19
TORSDOF 5
