REMARK SMILES CCCN(c1cc(/C=C\[C@@H]2C[C@@H]2C)cc(-c2nnc([C@](C)([NH3+])Cc3ccccc3)o2)c1)S(C)(=O)=O
REMARK SMILES IDX 5 1 6 2 7 3 14 4 15 5 31 6 4 7 3 8 2 9 1 10 32 11 34 12
REMARK SMILES IDX 35 13 33 14 16 15 30 16 17 17 19 18 18 19 20 20 21 21 23 22
REMARK SMILES IDX 24 23 29 24 25 25 28 26 26 27 27 28 22 29 8 33 9 34 10 35
REMARK SMILES IDX 12 36 11 37 13 38
REMARK H PARENT 22 30 22 31 22 32
REMARK Flexibility Score: inf
ROOT
ATOM      1  C   UNL     1       7.660   9.179  -2.354  1.00  0.00     0.053 A 
ATOM      2  C   UNL     1       7.131  10.336  -2.909  1.00  0.00     0.035 A 
ATOM      3  C   UNL     1       5.761  10.430  -3.154  1.00  0.00    -0.023 A 
ATOM      4  C   UNL     1       4.924   9.361  -2.840  1.00  0.00     0.022 A 
ATOM      5  C   UNL     1       5.458   8.202  -2.283  1.00  0.00     0.041 A 
ATOM      6  C   UNL     1       6.829   8.116  -2.036  1.00  0.00     0.040 A 
ENDROOT
BRANCH   1   7
ATOM      7  N   UNL     1       9.033   9.088  -2.110  1.00  0.00    -0.270 N 
BRANCH   7   8
ATOM      8  C   UNL     1       9.679  10.036  -1.198  1.00  0.00     0.135 C 
BRANCH   8   9
ATOM      9  C   UNL     1       9.539   9.536   0.241  1.00  0.00     0.019 C 
ATOM     10  C   UNL     1      10.213  10.525   1.193  1.00  0.00     0.006 C 
ENDBRANCH   8   9
ENDBRANCH   7   8
BRANCH   7  11
ATOM     11  S   UNL     1       9.929   7.909  -2.850  1.00  0.00     0.232 S 
ATOM     12  O   UNL     1      10.967   7.608  -1.927  1.00  0.00    -0.207 OA
ATOM     13  O   UNL     1       8.984   6.917  -3.226  1.00  0.00    -0.207 OA
ATOM     14  C   UNL     1      10.619   8.706  -4.327  1.00  0.00     0.183 C 
ENDBRANCH   7  11
ENDBRANCH   1   7
BRANCH   5  15
ATOM     15  C   UNL     1       4.573   7.065  -1.948  1.00  0.00     0.248 A 
ATOM     16  O   UNL     1       3.238   7.010  -2.132  1.00  0.00    -0.415 OA
ATOM     17  N   UNL     1       4.940   5.921  -1.422  1.00  0.00    -0.107 NA
ATOM     18  C   UNL     1       2.845   5.804  -1.689  1.00  0.00     0.277 A 
ATOM     19  N   UNL     1       3.905   5.172  -1.269  1.00  0.00    -0.106 NA
BRANCH  18  20
ATOM     20  C   UNL     1       1.433   5.275  -1.683  1.00  0.00     0.174 C 
ATOM     21  C   UNL     1       1.361   4.007  -2.535  1.00  0.00     0.090 C 
BRANCH  20  22
ATOM     22  C   UNL     1       1.017   4.950  -0.247  1.00  0.00     0.114 C 
BRANCH  22  23
ATOM     23  C   UNL     1      -0.395   4.421  -0.242  1.00  0.00    -0.041 A 
ATOM     24  C   UNL     1      -1.459   5.293  -0.107  1.00  0.00     0.004 A 
ATOM     25  C   UNL     1      -0.625   3.064  -0.371  1.00  0.00     0.004 A 
ATOM     26  C   UNL     1      -2.753   4.808  -0.103  1.00  0.00     0.000 A 
ATOM     27  C   UNL     1      -1.919   2.579  -0.366  1.00  0.00     0.000 A 
ATOM     28  C   UNL     1      -2.984   3.451  -0.237  1.00  0.00     0.000 A 
ENDBRANCH  22  23
ENDBRANCH  20  22
BRANCH  20  29
ATOM     29  N   UNL     1       0.538   6.293  -2.261  1.00  0.00    -0.345 N 
ATOM     30  H   UNL     1       0.823   6.498  -3.229  1.00  0.00     0.345 HD
ATOM     31  H   UNL     1       0.583   7.155  -1.699  1.00  0.00     0.345 HD
ATOM     32  H   UNL     1      -0.428   5.937  -2.259  1.00  0.00     0.345 HD
ENDBRANCH  20  29
ENDBRANCH  18  20
ENDBRANCH   5  15
BRANCH   3  33
ATOM     33  C   UNL     1       5.198  11.662  -3.746  1.00  0.00     0.004 C 
ATOM     34  C   UNL     1       4.160  11.589  -4.566  1.00  0.00    -0.023 C 
BRANCH  34  35
ATOM     35  C   UNL     1       3.654  10.245  -5.024  1.00  0.00     0.015 C 
ATOM     36  C   UNL     1       2.186   9.912  -4.752  1.00  0.00    -0.007 C 
ATOM     37  C   UNL     1       2.648  10.224  -6.176  1.00  0.00     0.012 C 
ATOM     38  C   UNL     1       1.343  10.970  -4.036  1.00  0.00     0.008 C 
ENDBRANCH  34  35
ENDBRANCH   3  33
TORSDOF 11
