REMARK SMILES Nc1cc(Cl)ccc1C(=O)OCC(=O)N1N=C(c2ccc(Cl)cc2)C[C@H]1c1ccco1
REMARK SMILES IDX 12 1 13 2 14 3 15 4 26 5 25 6 16 7 17 8 27 9 29 10 30 11
REMARK SMILES IDX 28 12 31 13 18 14 24 15 19 16 23 17 20 18 21 19 22 20 11 21
REMARK SMILES IDX 9 22 10 23 8 24 2 25 7 26 3 27 6 28 4 29 5 30 1 31
REMARK H PARENT 1 32 1 33
REMARK Flexibility Score: inf
ROOT
ATOM      1  C   UNL     1      -2.088  -4.944  -1.197  1.00  0.00     0.335 C 
ENDROOT
BRANCH   1   2
ATOM      2  C   UNL     1      -0.707  -5.257  -1.713  1.00  0.00     0.281 C 
ATOM      3  O   UNL     1      -0.364  -6.410  -1.869  1.00  0.00    -0.269 OA
BRANCH   2   4
ATOM      4  N   UNL     1       0.147  -4.255  -2.002  1.00  0.00    -0.219 N 
ATOM      5  C   UNL     1       1.518  -4.419  -2.510  1.00  0.00     0.183 C 
ATOM      6  C   UNL     1       2.022  -2.971  -2.666  1.00  0.00     0.094 C 
ATOM      7  N   UNL     1      -0.123  -2.895  -1.868  1.00  0.00    -0.174 NA
ATOM      8  C   UNL     1       0.854  -2.128  -2.208  1.00  0.00     0.071 C 
BRANCH   5   9
ATOM      9  C   UNL     1       2.363  -5.180  -1.521  1.00  0.00     0.128 A 
ATOM     10  C   UNL     1       3.838  -6.557  -0.604  1.00  0.00     0.042 A 
ATOM     11  C   UNL     1       3.207  -5.885   0.377  1.00  0.00     0.195 A 
ATOM     12  C   UNL     1       3.294  -6.102  -1.827  1.00  0.00     0.048 A 
ATOM     13  O   UNL     1       2.319  -5.049  -0.185  1.00  0.00    -0.467 OA
ENDBRANCH   5   9
BRANCH   8  14
ATOM     14  C   UNL     1       0.833  -0.654  -2.164  1.00  0.00    -0.002 A 
ATOM     15  C   UNL     1       1.958   0.075  -2.559  1.00  0.00     0.011 A 
ATOM     16  C   UNL     1      -0.310   0.019  -1.726  1.00  0.00     0.011 A 
ATOM     17  C   UNL     1       1.932   1.454  -2.515  1.00  0.00     0.021 A 
ATOM     18  C   UNL     1      -0.322   1.398  -1.687  1.00  0.00     0.021 A 
ATOM     19  C   UNL     1       0.796   2.115  -2.080  1.00  0.00     0.041 A 
ATOM     20  Cl  UNL     1       0.772   3.850  -2.028  1.00  0.00    -0.084 Cl
ENDBRANCH   8  14
ENDBRANCH   2   4
ENDBRANCH   1   2
BRANCH   1  21
ATOM     21  O   UNL     1      -2.809  -6.182  -0.964  1.00  0.00    -0.452 OA
BRANCH  21  22
ATOM     22  C   UNL     1      -4.070  -6.078  -0.498  1.00  0.00     0.340 C 
ATOM     23  O   UNL     1      -4.552  -4.982  -0.292  1.00  0.00    -0.246 OA
BRANCH  22  24
ATOM     24  C   UNL     1      -4.861  -7.291  -0.237  1.00  0.00     0.083 A 
ATOM     25  C   UNL     1      -6.212  -7.188   0.134  1.00  0.00     0.048 A 
ATOM     26  C   UNL     1      -4.272  -8.554  -0.353  1.00  0.00     0.019 A 
ATOM     27  C   UNL     1      -6.950  -8.341   0.371  1.00  0.00     0.046 A 
ATOM     28  C   UNL     1      -5.017  -9.685  -0.109  1.00  0.00     0.021 A 
ATOM     29  C   UNL     1      -6.353  -9.580   0.253  1.00  0.00     0.043 A 
ATOM     30  Cl  UNL     1      -7.280 -11.016   0.557  1.00  0.00    -0.084 Cl
BRANCH  25  31
ATOM     31  N   UNL     1      -6.808  -5.940   0.258  1.00  0.00    -0.398 N 
ATOM     32  H   UNL     1      -6.257  -5.088   0.077  1.00  0.00     0.156 HD
ATOM     33  H   UNL     1      -7.798  -5.866   0.530  1.00  0.00     0.156 HD
ENDBRANCH  25  31
ENDBRANCH  22  24
ENDBRANCH  21  22
ENDBRANCH   1  21
TORSDOF 8
