REMARK SMILES O=C(C[C@@H](NC(=O)c1ccccc1)c1ccccc1)Nc1nc2c(s1)CN(Cc1ccccc1)CC2
REMARK SMILES IDX 20 1 2 2 1 3 21 5 27 6 26 7 35 8 24 9 36 10 23 11 25 12
REMARK SMILES IDX 22 13 28 14 29 15 32 16 33 17 31 18 34 19 30 20 3 21 4 22
REMARK SMILES IDX 14 23 19 24 15 25 18 26 16 27 17 28 5 29 6 30 7 32 8 33
REMARK SMILES IDX 13 34 9 35 12 36 10 37 11 38
REMARK H PARENT 20 4 5 31
REMARK Flexibility Score: inf
ROOT
ATOM      1  N   UNL     1       2.839   6.216  -7.327  1.00  0.00    -0.302 N 
ATOM      2  C   UNL     1       4.032   6.474  -7.899  1.00  0.00     0.228 C 
ATOM      3  O   UNL     1       5.051   6.378  -7.247  1.00  0.00    -0.275 OA
ATOM      4  H   UNL     1       1.975   6.297  -7.881  1.00  0.00     0.172 HD
ENDROOT
BRANCH   1   5
ATOM      5  C   UNL     1       2.776   5.838  -5.991  1.00  0.00     0.189 A 
ATOM      6  N   UNL     1       2.859   4.194  -1.388  1.00  0.00    -0.294 NA
ATOM      7  C   UNL     1       1.722   4.690  -2.190  1.00  0.00     0.133 C 
ATOM      8  C   UNL     1       3.982   5.141  -1.440  1.00  0.00     0.091 C 
ATOM      9  C   UNL     1       2.243   5.107  -3.523  1.00  0.00     0.044 A 
ATOM     10  C   UNL     1       4.635   5.116  -2.825  1.00  0.00     0.073 C 
ATOM     11  C   UNL     1       3.542   5.313  -3.870  1.00  0.00     0.059 A 
ATOM     12  S   UNL     1       1.379   5.454  -5.029  1.00  0.00    -0.100 S 
ATOM     13  N   UNL     1       3.759   5.681  -5.127  1.00  0.00    -0.225 NA
BRANCH   6  14
ATOM     14  C   UNL     1       2.451   3.937  -0.001  1.00  0.00     0.120 C 
BRANCH  14  15
ATOM     15  C   UNL     1       1.156   3.165   0.008  1.00  0.00    -0.034 A 
ATOM     16  C   UNL     1      -1.219   1.751   0.017  1.00  0.00     0.000 A 
ATOM     17  C   UNL     1      -1.238   3.133   0.030  1.00  0.00     0.000 A 
ATOM     18  C   UNL     1      -0.013   1.076   0.008  1.00  0.00     0.000 A 
ATOM     19  C   UNL     1      -0.050   3.840   0.023  1.00  0.00     0.005 A 
ATOM     20  C   UNL     1       1.175   1.783   0.000  1.00  0.00     0.005 A 
ENDBRANCH  14  15
ENDBRANCH   6  14
ENDBRANCH   1   5
BRANCH   2  21
ATOM     21  C   UNL     1       4.101   6.883  -9.347  1.00  0.00     0.130 C 
BRANCH  21  22
ATOM     22  C   UNL     1       5.561   7.116  -9.743  1.00  0.00     0.122 C 
BRANCH  22  23
ATOM     23  C   UNL     1       5.621   7.642 -11.154  1.00  0.00    -0.025 A 
ATOM     24  C   UNL     1       5.791   8.995 -11.380  1.00  0.00     0.006 A 
ATOM     25  C   UNL     1       5.511   6.772 -12.222  1.00  0.00     0.006 A 
ATOM     26  C   UNL     1       5.846   9.479 -12.674  1.00  0.00     0.000 A 
ATOM     27  C   UNL     1       5.562   7.255 -13.516  1.00  0.00     0.000 A 
ATOM     28  C   UNL     1       5.732   8.608 -13.742  1.00  0.00     0.000 A 
ENDBRANCH  22  23
BRANCH  22  29
ATOM     29  N   UNL     1       6.296   5.851  -9.662  1.00  0.00    -0.345 N 
ATOM     30  C   UNL     1       7.629   5.858  -9.465  1.00  0.00     0.251 C 
ATOM     31  H   UNL     1       5.793   4.957  -9.756  1.00  0.00     0.164 HD
ATOM     32  O   UNL     1       8.221   6.914  -9.354  1.00  0.00    -0.269 OA
BRANCH  30  33
ATOM     33  C   UNL     1       8.371   4.582  -9.383  1.00  0.00     0.039 A 
ATOM     34  C   UNL     1       9.752   4.586  -9.179  1.00  0.00     0.014 A 
ATOM     35  C   UNL     1       7.693   3.368  -9.504  1.00  0.00     0.014 A 
ATOM     36  C   UNL     1      10.438   3.391  -9.104  1.00  0.00     0.001 A 
ATOM     37  C   UNL     1       8.392   2.181  -9.432  1.00  0.00     0.001 A 
ATOM     38  C   UNL     1       9.760   2.191  -9.230  1.00  0.00     0.000 A 
ENDBRANCH  30  33
ENDBRANCH  22  29
ENDBRANCH  21  22
ENDBRANCH   2  21
TORSDOF 8
