REMARK SMILES Nc1c(C(=O)NC2CCCC2)c2nc3ccccc3nc2n1-c1cccc(O)c1
REMARK SMILES IDX 16 1 17 2 18 3 19 4 14 5 15 6 13 7 12 8 3 9 2 10 22 11 21 12
REMARK SMILES IDX 20 13 4 14 5 15 6 16 7 18 11 19 8 20 10 21 9 22 23 23 29 24
REMARK SMILES IDX 24 25 27 26 25 27 26 28 28 29 1 31
REMARK H PARENT 6 17 28 30 1 32 1 33
REMARK Flexibility Score: inf
ROOT
ATOM      1  C   UNL     1      -2.268   8.775   4.752  1.00  0.00     0.002 A 
ATOM      2  C   UNL     1      -2.423   7.443   5.133  1.00  0.00     0.002 A 
ATOM      3  C   UNL     1      -2.036   6.431   4.311  1.00  0.00     0.031 A 
ATOM      4  C   UNL     1      -1.470   6.725   3.056  1.00  0.00     0.091 A 
ATOM      5  C   UNL     1      -1.313   8.080   2.669  1.00  0.00     0.090 A 
ATOM      6  C   UNL     1      -1.726   9.099   3.548  1.00  0.00     0.030 A 
ATOM      7  N   UNL     1      -0.778   8.387   1.482  1.00  0.00    -0.242 NA
ATOM      8  C   UNL     1      -0.396   7.420   0.671  1.00  0.00     0.123 A 
ATOM      9  C   UNL     1       0.214   7.378  -0.668  1.00  0.00     0.110 A 
ATOM     10  C   UNL     1       0.377   6.035  -0.986  1.00  0.00     0.125 A 
ATOM     11  N   UNL     1      -0.074   5.247   0.030  1.00  0.00    -0.278 N 
ATOM     12  C   UNL     1      -0.563   6.019   1.067  1.00  0.00     0.166 A 
ATOM     13  N   UNL     1      -1.085   5.735   2.241  1.00  0.00    -0.226 NA
ENDROOT
BRANCH   9  14
ATOM     14  C   UNL     1       0.575   8.524  -1.500  1.00  0.00     0.257 C 
ATOM     15  O   UNL     1      -0.234   8.988  -2.282  1.00  0.00    -0.269 OA
ATOM     16  N   UNL     1       1.804   9.068  -1.400  1.00  0.00    -0.349 N 
ATOM     17  H   UNL     1       2.489   8.676  -0.738  1.00  0.00     0.164 HD
BRANCH  16  18
ATOM     18  C   UNL     1       2.167  10.217  -2.234  1.00  0.00     0.082 C 
ATOM     19  C   UNL     1       3.287  11.026  -1.558  1.00  0.00     0.025 C 
ATOM     20  C   UNL     1       2.728   9.732  -3.586  1.00  0.00     0.025 C 
ATOM     21  C   UNL     1       4.490  11.005  -2.523  1.00  0.00     0.002 C 
ATOM     22  C   UNL     1       3.858  10.740  -3.912  1.00  0.00     0.002 C 
ENDBRANCH  16  18
ENDBRANCH   9  14
BRANCH  11  23
ATOM     23  C   UNL     1      -0.051   3.846   0.022  1.00  0.00     0.053 A 
ATOM     24  C   UNL     1       1.161   3.171   0.007  1.00  0.00     0.072 A 
ATOM     25  C   UNL     1      -1.242   3.131   0.030  1.00  0.00     0.027 A 
ATOM     26  C   UNL     1       1.180   1.785   0.000  1.00  0.00     0.117 A 
ATOM     27  C   UNL     1      -1.219   1.750   0.017  1.00  0.00     0.006 A 
ATOM     28  C   UNL     1      -0.013   1.076   0.008  1.00  0.00     0.046 A 
BRANCH  26  29
ATOM     29  O   UNL     1       2.366   1.121  -0.014  1.00  0.00    -0.508 OA
ATOM     30  H   UNL     1       2.322   0.538  -0.812  1.00  0.00     0.293 HD
ENDBRANCH  26  29
ENDBRANCH  11  23
BRANCH  10  31
ATOM     31  N   UNL     1       0.916   5.569  -2.157  1.00  0.00    -0.384 N 
ATOM     32  H   UNL     1       1.216   6.279  -2.840  1.00  0.00     0.158 HD
ATOM     33  H   UNL     1       1.020   4.564  -2.356  1.00  0.00     0.158 HD
ENDBRANCH  10  31
TORSDOF 5
