REMARK SMILES CC1=NN(c2ccc(C)c(C)c2)C(=O)/C1=C/N=N/C(=O)c1ccccc1N(O)O
REMARK SMILES IDX 19 1 20 2 18 3 17 4 16 5 4 6 3 7 13 8 2 9 14 10 15 11 1 12
REMARK SMILES IDX 5 13 9 14 8 15 10 16 7 17 12 18 11 19 6 20 21 21 26 22 22 23
REMARK SMILES IDX 25 24 23 25 24 26 27 27 28 28 29 30
REMARK H PARENT 28 29 29 31
REMARK Flexibility Score: inf
ROOT
ATOM      1  C   UNL     1      -7.847  -3.182   0.025  1.00  0.00     0.297 C 
ATOM      2  O   UNL     1      -8.525  -2.171   0.033  1.00  0.00    -0.265 OA
ENDROOT
BRANCH   1   3
ATOM      3  N   UNL     1      -6.502  -3.091   0.018  1.00  0.00    -0.106 NA
ATOM      4  N   UNL     1      -5.934  -1.933   0.021  1.00  0.00    -0.154 NA
BRANCH   4   5
ATOM      5  C   UNL     1      -4.595  -1.842   0.015  1.00  0.00     0.151 C 
ATOM      6  N   UNL     1      -2.429   1.040   0.019  1.00  0.00    -0.196 N 
ATOM      7  N   UNL     1      -3.699   1.616   0.028  1.00  0.00    -0.169 NA
ATOM      8  C   UNL     1      -2.529  -0.305   0.007  1.00  0.00     0.282 C 
ATOM      9  C   UNL     1      -4.635   0.714   0.027  1.00  0.00     0.073 C 
ATOM     10  O   UNL     1      -1.618  -1.108  -0.008  1.00  0.00    -0.267 OA
ATOM     11  C   UNL     1      -3.986  -0.601   0.018  1.00  0.00     0.085 C 
ATOM     12  C   UNL     1      -6.119   0.974   0.035  1.00  0.00     0.069 C 
BRANCH   6  13
ATOM     13  C   UNL     1      -1.224   1.755   0.017  1.00  0.00     0.069 A 
ATOM     14  C   UNL     1       2.451   3.935   0.000  1.00  0.00     0.044 C 
ATOM     15  C   UNL     1       1.155   3.166   0.009  1.00  0.00    -0.048 A 
ATOM     16  C   UNL     1      -0.049   3.845   0.024  1.00  0.00    -0.046 A 
ATOM     17  C   UNL     1       1.173   1.783   0.000  1.00  0.00     0.006 A 
ATOM     18  C   UNL     1      -1.239   3.143   0.031  1.00  0.00     0.032 A 
ATOM     19  C   UNL     1      -0.064   5.352   0.033  1.00  0.00     0.044 C 
ATOM     20  C   UNL     1      -0.013   1.076   0.008  1.00  0.00     0.029 A 
ENDBRANCH   6  13
ENDBRANCH   4   5
ENDBRANCH   1   3
BRANCH   1  21
ATOM     21  C   UNL     1      -8.496  -4.504   0.022  1.00  0.00     0.072 A 
ATOM     22  C   UNL     1      -9.898  -4.605   0.028  1.00  0.00     0.107 A 
ATOM     23  C   UNL     1      -7.721  -5.669   0.006  1.00  0.00     0.016 A 
ATOM     24  C   UNL     1     -10.497  -5.859   0.025  1.00  0.00     0.032 A 
ATOM     25  C   UNL     1      -8.334  -6.901   0.008  1.00  0.00     0.001 A 
ATOM     26  C   UNL     1      -9.718  -6.997   0.015  1.00  0.00     0.002 A 
BRANCH  22  27
ATOM     27  N   UNL     1     -10.679  -3.458   0.037  1.00  0.00    -0.130 N 
BRANCH  27  28
ATOM     28  O   UNL     1     -10.981  -3.019  -1.325  1.00  0.00    -0.264 OA
ATOM     29  H   UNL     1     -11.464  -3.744  -1.796  1.00  0.00     0.249 HD
ENDBRANCH  27  28
BRANCH  27  30
ATOM     30  O   UNL     1     -11.907  -3.666   0.805  1.00  0.00    -0.264 OA
ATOM     31  H   UNL     1     -11.666  -3.909   1.734  1.00  0.00     0.249 HD
ENDBRANCH  27  30
ENDBRANCH  22  27
ENDBRANCH   1  21
TORSDOF 7
