REMARK SMILES Cc1cc(CC[C@]2(C(C)C)CC([O-])=C(Sc3cc(C)c(CO)cc3C(C)(C)C)C(=O)O2)ccc1O
REMARK SMILES IDX 7 1 11 2 12 3 13 4 14 5 29 6 31 7 30 8 6 9 5 10 4 11 1 12
REMARK SMILES IDX 2 13 34 14 3 15 33 16 32 17 35 18 8 20 9 21 10 22 15 23
REMARK SMILES IDX 16 24 24 25 17 26 23 27 18 28 20 29 19 30 25 31 26 32 27 33
REMARK SMILES IDX 28 34 21 35 22 36
REMARK H PARENT 35 19 22 37
REMARK Flexibility Score: inf
ROOT
ATOM      1  C   UNL     1       0.245  -5.013  -0.502  1.00  0.00     0.118 C 
ATOM      2  C   UNL     1      -1.188  -5.076   0.040  1.00  0.00     0.069 C 
ATOM      3  C   UNL     1      -1.794  -3.695  -0.031  1.00  0.00    -0.107 C 
ATOM      4  O   UNL     1      -2.999  -3.557  -0.130  1.00  0.00    -0.874 OA
ATOM      5  C   UNL     1      -0.957  -2.575   0.011  1.00  0.00     0.086 C 
ATOM      6  C   UNL     1       0.406  -2.734   0.120  1.00  0.00     0.344 C 
ATOM      7  O   UNL     1       0.947  -3.968   0.179  1.00  0.00    -0.455 OA
ATOM      8  O   UNL     1       1.205  -1.648   0.169  1.00  0.00    -0.246 OA
ENDROOT
BRANCH   1   9
ATOM      9  C   UNL     1       0.213  -4.716  -2.003  1.00  0.00     0.054 C 
BRANCH   9  10
ATOM     10  C   UNL     1       1.642  -4.687  -2.547  1.00  0.00     0.039 C 
BRANCH  10  11
ATOM     11  C   UNL     1       1.621  -4.259  -3.992  1.00  0.00    -0.047 A 
ATOM     12  C   UNL     1       1.799  -1.061  -5.993  1.00  0.00     0.048 C 
ATOM     13  C   UNL     1       1.696  -2.523  -5.640  1.00  0.00    -0.009 A 
ATOM     14  C   UNL     1       1.581  -3.473  -6.644  1.00  0.00     0.118 A 
ATOM     15  C   UNL     1       1.716  -2.918  -4.316  1.00  0.00     0.011 A 
ATOM     16  C   UNL     1       1.486  -4.818  -6.317  1.00  0.00     0.047 A 
ATOM     17  C   UNL     1       1.512  -5.208  -4.992  1.00  0.00     0.007 A 
BRANCH  14  18
ATOM     18  O   UNL     1       1.562  -3.087  -7.947  1.00  0.00    -0.508 OA
ATOM     19  H   UNL     1       2.397  -2.571  -8.073  1.00  0.00     0.293 HD
ENDBRANCH  14  18
ENDBRANCH  10  11
ENDBRANCH   9  10
ENDBRANCH   1   9
BRANCH   1  20
ATOM     20  C   UNL     1       0.946  -6.350  -0.255  1.00  0.00     0.027 C 
ATOM     21  C   UNL     1       0.857  -6.705   1.231  1.00  0.00     0.011 C 
ATOM     22  C   UNL     1       0.268  -7.443  -1.083  1.00  0.00     0.011 C 
ENDBRANCH   1  20
BRANCH   5  23
ATOM     23  S   UNL     1      -1.649  -0.957  -0.067  1.00  0.00    -0.083 SA
BRANCH  23  24
ATOM     24  C   UNL     1      -2.574  -0.816   1.426  1.00  0.00     0.016 A 
ATOM     25  C   UNL     1      -3.375   0.299   1.647  1.00  0.00    -0.028 A 
ATOM     26  C   UNL     1      -2.506  -1.820   2.385  1.00  0.00     0.019 A 
ATOM     27  C   UNL     1      -4.099   0.405   2.818  1.00  0.00     0.011 A 
ATOM     28  C   UNL     1      -3.233  -1.706   3.554  1.00  0.00    -0.044 A 
ATOM     29  C   UNL     1      -4.028  -0.595   3.770  1.00  0.00    -0.019 A 
ATOM     30  C   UNL     1      -3.159  -2.794   4.594  1.00  0.00     0.045 C 
BRANCH  25  31
ATOM     31  C   UNL     1      -3.447   1.393   0.613  1.00  0.00    -0.012 C 
ATOM     32  C   UNL     1      -4.391   2.494   1.101  1.00  0.00     0.016 C 
ATOM     33  C   UNL     1      -2.051   1.979   0.392  1.00  0.00     0.016 C 
ATOM     34  C   UNL     1      -3.973   0.816  -0.703  1.00  0.00     0.016 C 
ENDBRANCH  25  31
BRANCH  29  35
ATOM     35  C   UNL     1      -4.819  -0.474   5.048  1.00  0.00     0.191 C 
BRANCH  35  36
ATOM     36  O   UNL     1      -5.555   0.750   5.038  1.00  0.00    -0.392 OA
ATOM     37  H   UNL     1      -6.174   0.758   4.265  1.00  0.00     0.211 HD
ENDBRANCH  35  36
ENDBRANCH  29  35
ENDBRANCH  23  24
ENDBRANCH   5  23
TORSDOF 10
