REMARK SMILES CCOC(=O)c1c(NC(=O)CSc2nnc(-c3ccccc3)[nH]2)sc2c1CC(C)(C)[NH2+]C2(C)C
REMARK SMILES IDX 8 1 9 2 10 3 7 5 6 6 26 7 24 8 27 9 25 10 28 11 32 12 31 13
REMARK SMILES IDX 29 14 30 15 33 16 34 17 4 20 5 21 3 22 2 23 1 24 11 25 12 26
REMARK SMILES IDX 13 27 23 28 14 29 16 30 15 32 17 33 22 34 18 35 21 36 19 37
REMARK SMILES IDX 20 38
REMARK H PARENT 8 4 31 18 31 19 23 31
REMARK Flexibility Score: inf
ROOT
ATOM      1  N   UNL     1      -0.288   1.272  -2.443  1.00  0.00    -0.316 N 
ATOM      2  C   UNL     1      -0.742   1.585  -1.213  1.00  0.00     0.235 C 
ATOM      3  O   UNL     1      -1.736   2.268  -1.088  1.00  0.00    -0.274 OA
ATOM      4  H   UNL     1       0.556   0.692  -2.549  1.00  0.00     0.170 HD
ENDROOT
BRANCH   1   5
ATOM      5  C   UNL     1      -0.959   1.732  -3.566  1.00  0.00     0.110 A 
ATOM      6  C   UNL     1      -0.647   1.516  -4.905  1.00  0.00     0.098 A 
ATOM      7  C   UNL     1      -1.522   2.109  -5.893  1.00  0.00    -0.005 A 
ATOM      8  S   UNL     1      -2.385   2.713  -3.644  1.00  0.00    -0.115 S 
ATOM      9  C   UNL     1      -1.378   1.985  -7.404  1.00  0.00     0.105 C 
ATOM     10  C   UNL     1      -2.558   2.828  -5.401  1.00  0.00     0.071 A 
ATOM     11  C   UNL     1      -2.786   2.040  -8.008  1.00  0.00     0.095 C 
ATOM     12  C   UNL     1      -3.594   3.554  -6.194  1.00  0.00     0.126 C 
ATOM     13  N   UNL     1      -3.497   3.247  -7.618  1.00  0.00    -0.333 N 
ATOM     14  C   UNL     1      -3.562   0.786  -7.597  1.00  0.00     0.079 C 
ATOM     15  C   UNL     1      -2.643   2.027  -9.541  1.00  0.00     0.079 C 
ATOM     16  C   UNL     1      -4.988   3.194  -5.663  1.00  0.00     0.085 C 
ATOM     17  C   UNL     1      -3.386   5.068  -5.994  1.00  0.00     0.085 C 
ATOM     18  H   UNL     1      -4.452   3.192  -7.999  1.00  0.00     0.347 HD
ATOM     19  H   UNL     1      -3.052   4.047  -8.090  1.00  0.00     0.347 HD
BRANCH   6  20
ATOM     20  C   UNL     1       0.523   0.722  -5.285  1.00  0.00     0.341 C 
ATOM     21  O   UNL     1       0.419  -0.480  -5.440  1.00  0.00    -0.246 OA
BRANCH  20  22
ATOM     22  O   UNL     1       1.717   1.324  -5.463  1.00  0.00    -0.462 OA
BRANCH  22  23
ATOM     23  C   UNL     1       2.834   0.475  -5.839  1.00  0.00     0.230 C 
ATOM     24  C   UNL     1       4.094   1.329  -5.994  1.00  0.00     0.049 C 
ENDBRANCH  22  23
ENDBRANCH  20  22
ENDBRANCH   6  20
ENDBRANCH   1   5
BRANCH   2  25
ATOM     25  C   UNL     1      -0.013   1.086   0.008  1.00  0.00     0.178 C 
BRANCH  25  26
ATOM     26  S   UNL     1      -0.860   1.669   1.497  1.00  0.00    -0.076 SA
BRANCH  26  27
ATOM     27  C   UNL     1       0.174   0.961   2.735  1.00  0.00     0.189 A 
ATOM     28  N   UNL     1       0.016   1.077   4.087  1.00  0.00    -0.316 N 
ATOM     29  N   UNL     1       1.241   0.221   2.530  1.00  0.00    -0.123 NA
ATOM     30  C   UNL     1       1.050   0.361   4.644  1.00  0.00     0.162 A 
ATOM     31  H   UNL     1      -0.723   1.594   4.585  1.00  0.00     0.170 HD
ATOM     32  N   UNL     1       1.754  -0.134   3.653  1.00  0.00    -0.129 NA
BRANCH  30  33
ATOM     33  C   UNL     1       1.318   0.183   6.087  1.00  0.00     0.019 A 
ATOM     34  C   UNL     1       2.417  -0.568   6.509  1.00  0.00     0.012 A 
ATOM     35  C   UNL     1       0.475   0.768   7.034  1.00  0.00     0.012 A 
ATOM     36  C   UNL     1       2.660  -0.730   7.857  1.00  0.00     0.001 A 
ATOM     37  C   UNL     1       0.727   0.593   8.379  1.00  0.00     0.001 A 
ATOM     38  C   UNL     1       1.819  -0.151   8.790  1.00  0.00     0.000 A 
ENDBRANCH  30  33
ENDBRANCH  26  27
ENDBRANCH  25  26
ENDBRANCH   2  25
TORSDOF 8
