REMARK SMILES N#Cc1c2c(n(-c3ccccc3)c1NC(=O)CSc1nc(CC3CCCC3)n[n-]1)CCCC2
REMARK SMILES IDX 17 1 15 2 14 3 16 5 13 6 6 7 5 8 3 9 30 10 4 11 31 12 33 13
REMARK SMILES IDX 32 14 7 15 10 16 11 17 9 18 12 19 8 20 2 21 1 22 18 23 19 24
REMARK SMILES IDX 20 25 29 26 21 27 28 28 22 29 23 30 27 31 24 32 26 33 25 34
REMARK H PARENT 14 4
REMARK Flexibility Score: inf
ROOT
ATOM      1  C   UNL     1      -2.488  -2.862  -0.445  1.00  0.00     0.174 C 
ENDROOT
BRANCH   1   2
ATOM      2  C   UNL     1      -1.231  -2.055  -0.249  1.00  0.00     0.235 C 
ATOM      3  N   UNL     1      -1.302  -0.713  -0.142  1.00  0.00    -0.310 N 
ATOM      4  H   UNL     1      -2.216  -0.240  -0.185  1.00  0.00     0.171 HD
ATOM      5  O   UNL     1      -0.156  -2.612  -0.189  1.00  0.00    -0.274 OA
BRANCH   3   6
ATOM      6  C   UNL     1      -0.143   0.031   0.027  1.00  0.00     0.136 A 
ATOM      7  N   UNL     1       1.052  -0.199  -0.584  1.00  0.00    -0.299 N 
ATOM      8  C   UNL     1       1.971   0.733  -0.183  1.00  0.00     0.029 A 
ATOM      9  C   UNL     1       0.002   1.143   0.848  1.00  0.00     0.098 A 
ATOM     10  C   UNL     1       3.413   0.842  -0.619  1.00  0.00     0.055 C 
ATOM     11  C   UNL     1       1.388   1.577   0.690  1.00  0.00    -0.007 A 
ATOM     12  C   UNL     1       3.924   2.242  -0.260  1.00  0.00     0.007 C 
ATOM     13  C   UNL     1       2.080   2.737   1.356  1.00  0.00     0.039 C 
ATOM     14  C   UNL     1       3.595   2.548   1.204  1.00  0.00     0.005 C 
BRANCH   7  15
ATOM     15  C   UNL     1       1.305  -1.238  -1.490  1.00  0.00     0.047 A 
ATOM     16  C   UNL     1       1.804  -3.288  -3.279  1.00  0.00     0.000 A 
ATOM     17  C   UNL     1       2.456  -3.263  -2.060  1.00  0.00     0.002 A 
ATOM     18  C   UNL     1       0.904  -2.291  -3.606  1.00  0.00     0.002 A 
ATOM     19  C   UNL     1       2.213  -2.237  -1.167  1.00  0.00     0.026 A 
ATOM     20  C   UNL     1       0.652  -1.266  -2.715  1.00  0.00     0.026 A 
ENDBRANCH   7  15
BRANCH   9  21
ATOM     21  C   UNL     1      -1.002   1.744   1.674  1.00  0.00     0.103 C 
ATOM     22  N   UNL     1      -1.798   2.220   2.329  1.00  0.00    -0.192 NA
ENDBRANCH   9  21
ENDBRANCH   3   6
ENDBRANCH   1   2
BRANCH   1  23
ATOM     23  S   UNL     1      -2.067  -4.619  -0.553  1.00  0.00    -0.124 SA
BRANCH  23  24
ATOM     24  C   UNL     1      -3.674  -5.307  -0.774  1.00  0.00    -0.006 A 
ATOM     25  N   UNL     1      -3.977  -6.629  -0.923  1.00  0.00    -0.417 NA
ATOM     26  N   UNL     1      -4.806  -4.644  -0.826  1.00  0.00    -0.347 NA
ATOM     27  C   UNL     1      -5.337  -6.684  -1.059  1.00  0.00     0.027 A 
ATOM     28  N   UNL     1      -5.783  -5.462  -0.990  1.00  0.00    -0.267 NA
BRANCH  27  29
ATOM     29  C   UNL     1      -6.166  -7.928  -1.252  1.00  0.00     0.055 C 
BRANCH  29  30
ATOM     30  C   UNL     1      -7.253  -7.988  -0.177  1.00  0.00    -0.006 C 
ATOM     31  C   UNL     1      -8.174  -9.196  -0.426  1.00  0.00     0.004 C 
ATOM     32  C   UNL     1      -6.613  -8.199   1.211  1.00  0.00     0.004 C 
ATOM     33  C   UNL     1      -8.061 -10.100   0.819  1.00  0.00     0.000 C 
ATOM     34  C   UNL     1      -7.602  -9.140   1.945  1.00  0.00     0.000 C 
ENDBRANCH  29  30
ENDBRANCH  27  29
ENDBRANCH  23  24
ENDBRANCH   1  23
TORSDOF 8
