REMARK SMILES Cc1csc(-c2ccc(C(=O)N[C@H]3CCCCNC3=O)c(N(C)C)n2)c1
REMARK SMILES IDX 13 1 12 2 10 3 11 4 9 6 6 7 25 8 7 9 21 10 8 11 5 12 1 13
REMARK SMILES IDX 2 14 3 15 26 16 4 17 22 18 23 19 24 20 19 21 18 22 20 23
REMARK SMILES IDX 17 25 16 26 14 28 15 29
REMARK H PARENT 12 5 18 24
REMARK Flexibility Score: 90.00
ROOT
ATOM      1  C   UNL     1      -4.898   3.978   0.123  1.00  0.00     0.171 C 
ENDROOT
BRANCH   1   2
ATOM      2  N   UNL     1      -3.640   3.226   0.125  1.00  0.00    -0.340 N 
ATOM      3  C   UNL     1      -2.465   3.879   0.026  1.00  0.00     0.255 C 
ATOM      4  O   UNL     1      -2.449   5.091  -0.065  1.00  0.00    -0.269 OA
ATOM      5  H   UNL     1      -3.654   2.199   0.202  1.00  0.00     0.164 HD
BRANCH   3   6
ATOM      6  C   UNL     1      -1.202   3.124   0.028  1.00  0.00     0.082 A 
ATOM      7  C   UNL     1       1.179   1.788   0.032  1.00  0.00     0.083 A 
ATOM      8  N   UNL     1       1.167   3.118   0.036  1.00  0.00    -0.229 NA
ATOM      9  C   UNL     1      -0.014   1.058   0.026  1.00  0.00     0.031 A 
ATOM     10  C   UNL     1       0.033   3.798   0.034  1.00  0.00     0.141 A 
ATOM     11  C   UNL     1      -1.211   1.721   0.018  1.00  0.00     0.020 A 
BRANCH   7  12
ATOM     12  C   UNL     1       2.468   1.073   0.034  1.00  0.00     0.053 A 
ATOM     13  C   UNL     1       6.218   1.236   0.046  1.00  0.00     0.045 C 
ATOM     14  C   UNL     1       4.804   0.714   0.040  1.00  0.00    -0.040 A 
ATOM     15  C   UNL     1       4.564  -0.624   0.035  1.00  0.00     0.069 A 
ATOM     16  C   UNL     1       3.740   1.586   0.034  1.00  0.00     0.025 A 
ATOM     17  S   UNL     1       2.780  -0.685   0.030  1.00  0.00    -0.142 S 
ENDBRANCH   7  12
BRANCH  10  18
ATOM     18  N   UNL     1       0.060   5.181   0.038  1.00  0.00    -0.362 N 
ATOM     19  C   UNL     1       0.649   5.692   1.284  1.00  0.00     0.145 C 
ATOM     20  C   UNL     1       0.780   5.696  -1.134  1.00  0.00     0.145 C 
ENDBRANCH  10  18
ENDBRANCH   3   6
ENDBRANCH   1   2
BRANCH   1  21
ATOM     21  C   UNL     1      -5.210   4.450   1.527  1.00  0.00     0.242 C 
ATOM     22  N   UNL     1      -6.186   5.335   1.736  1.00  0.00    -0.354 N 
ATOM     23  O   UNL     1      -4.570   4.024   2.465  1.00  0.00    -0.273 OA
ATOM     24  H   UNL     1      -6.397   5.648   2.694  1.00  0.00     0.163 HD
BRANCH  22  25
ATOM     25  C   UNL     1      -6.965   5.866   0.606  1.00  0.00     0.116 C 
BRANCH  25  26
ATOM     26  C   UNL     1      -7.888   4.762   0.085  1.00  0.00     0.021 CG0
ATOM     27  G   UNL     1      -7.171   3.895  -0.934  1.00  0.00     0.000 G0
ENDBRANCH  25  26
ENDBRANCH  22  25
ENDBRANCH   1  21
BRANCH   1  28
ATOM     28  C   UNL     1      -6.037   3.072  -0.349  1.00  0.00     0.035 C 
BRANCH  28  29
ATOM     29  C   UNL     1      -7.171   3.895  -0.934  1.00  0.00     0.004 CG0
ATOM     30  G   UNL     1      -7.888   4.762   0.085  1.00  0.00     0.000 G0
ENDBRANCH  28  29
ENDBRANCH   1  28
TORSDOF 4
