REMARK SMILES Cc1cccc(C[NH+]2CCC(O)(c3ccc4oc(C(=O)NCCc5cccc(F)c5)cc4c3)CC2)c1
REMARK SMILES IDX 13 1 14 2 15 3 16 4 32 5 33 6 31 7 18 8 17 9 11 10 8 11 9 12
REMARK SMILES IDX 35 13 10 15 34 16 7 17 6 18 1 19 2 20 36 21 3 22 4 23 5 24
REMARK SMILES IDX 12 25 19 27 20 28 21 29 22 31 23 32 24 33 30 34 25 35 28 36
REMARK SMILES IDX 26 37 27 38 29 39
REMARK H PARENT 8 14 12 26 21 30
REMARK Flexibility Score: inf
ROOT
ATOM      1  C   UNL     1       0.602   7.806  -5.061  1.00  0.00    -0.015 A 
ATOM      2  C   UNL     1      -0.660   7.770  -5.640  1.00  0.00     0.010 A 
ATOM      3  C   UNL     1      -0.840   8.123  -6.960  1.00  0.00     0.048 A 
ATOM      4  C   UNL     1       0.251   8.521  -7.724  1.00  0.00     0.135 A 
ATOM      5  C   UNL     1       1.527   8.557  -7.132  1.00  0.00     0.021 A 
ATOM      6  C   UNL     1       1.687   8.200  -5.791  1.00  0.00     0.018 A 
ATOM      7  C   UNL     1       2.439   9.009  -8.182  1.00  0.00     0.065 A 
ATOM      8  C   UNL     1       1.673   9.205  -9.287  1.00  0.00     0.192 A 
ATOM      9  O   UNL     1       0.386   8.914  -9.006  1.00  0.00    -0.451 OA
ENDROOT
BRANCH   1  10
ATOM     10  C   UNL     1       0.773   7.415  -3.616  1.00  0.00     0.100 C 
ATOM     11  N   UNL     1      -0.113   5.830  -1.366  1.00  0.00    -0.331 N 
ATOM     12  C   UNL     1       1.158   5.510  -2.049  1.00  0.00     0.265 C 
ATOM     13  C   UNL     1      -0.348   7.289  -1.389  1.00  0.00     0.265 C 
ATOM     14  H   UNL     1      -0.885   5.360  -1.860  1.00  0.00     0.348 HD
ATOM     15  C   UNL     1       1.046   5.911  -3.522  1.00  0.00     0.102 C 
ATOM     16  C   UNL     1      -0.506   7.744  -2.841  1.00  0.00     0.102 C 
BRANCH  11  17
ATOM     17  C   UNL     1      -0.070   5.347   0.030  1.00  0.00     0.299 C 
BRANCH  17  18
ATOM     18  C   UNL     1      -0.050   3.840   0.022  1.00  0.00     0.006 A 
ATOM     19  C   UNL     1      -2.514   0.980   0.019  1.00  0.00     0.044 C 
ATOM     20  C   UNL     1      -1.219   1.751   0.017  1.00  0.00    -0.051 A 
ATOM     21  C   UNL     1      -1.238   3.133   0.030  1.00  0.00     0.013 A 
ATOM     22  C   UNL     1      -0.013   1.076   0.008  1.00  0.00     0.003 A 
ATOM     23  C   UNL     1       1.175   1.783   0.000  1.00  0.00     0.001 A 
ATOM     24  C   UNL     1       1.156   3.166   0.008  1.00  0.00     0.009 A 
ENDBRANCH  17  18
ENDBRANCH  11  17
BRANCH  10  25
ATOM     25  O   UNL     1       1.871   8.137  -3.053  1.00  0.00    -0.385 OA
ATOM     26  H   UNL     1       2.699   7.920  -3.551  1.00  0.00     0.211 HD
ENDBRANCH  10  25
ENDBRANCH   1  10
BRANCH   8  27
ATOM     27  C   UNL     1       2.172   9.662 -10.591  1.00  0.00     0.287 C 
ATOM     28  O   UNL     1       3.356   9.898 -10.742  1.00  0.00    -0.266 OA
ATOM     29  N   UNL     1       1.317   9.822 -11.621  1.00  0.00    -0.349 N 
ATOM     30  H   UNL     1       0.315   9.623 -11.494  1.00  0.00     0.163 HD
BRANCH  29  31
ATOM     31  C   UNL     1       1.814  10.278 -12.922  1.00  0.00     0.121 C 
BRANCH  31  32
ATOM     32  C   UNL     1       0.648  10.375 -13.908  1.00  0.00     0.057 C 
BRANCH  32  33
ATOM     33  C   UNL     1       1.160  10.844 -15.245  1.00  0.00    -0.043 A 
ATOM     34  C   UNL     1       1.578   9.923 -16.187  1.00  0.00     0.043 A 
ATOM     35  C   UNL     1       1.205  12.196 -15.532  1.00  0.00     0.004 A 
ATOM     36  C   UNL     1       2.047  10.355 -17.416  1.00  0.00     0.123 A 
ATOM     37  C   UNL     1       1.678  12.628 -16.757  1.00  0.00     0.003 A 
ATOM     38  C   UNL     1       2.097  11.709 -17.700  1.00  0.00     0.039 A 
ATOM     39  F   UNL     1       2.456   9.455 -18.338  1.00  0.00    -0.207 F 
ENDBRANCH  32  33
ENDBRANCH  31  32
ENDBRANCH  29  31
ENDBRANCH   8  27
TORSDOF 8
