REMARK SMILES COc1ccc(CC[NH2+]Cc2cc3c(-c4ccc(C)cc4)nn(-c4ccccc4)c3[nH]c2=O)cc1OC
REMARK SMILES IDX 9 1 10 4 11 5 14 6 22 7 13 8 23 9 30 10 12 11 31 12 32 13
REMARK SMILES IDX 33 15 15 16 19 17 18 18 20 19 17 20 21 21 16 22 24 23 29 24
REMARK SMILES IDX 25 25 28 26 26 27 27 28 8 29 7 30 6 31 34 32 5 33 35 34 4 35
REMARK SMILES IDX 3 36 36 37 37 38 2 39 1 40
REMARK H PARENT 9 2 9 3 31 14
REMARK Flexibility Score: inf
ROOT
ATOM      1  N   UNL     1      -4.309   4.834  -1.363  1.00  0.00    -0.342 N 
ATOM      2  H   UNL     1      -4.193   5.729  -0.867  1.00  0.00     0.346 HD
ATOM      3  H   UNL     1      -5.006   4.261  -0.867  1.00  0.00     0.346 HD
ENDROOT
BRANCH   1   4
ATOM      4  C   UNL     1      -4.778   5.094  -2.737  1.00  0.00     0.303 C 
BRANCH   4   5
ATOM      5  C   UNL     1      -6.095   5.824  -2.680  1.00  0.00     0.072 A 
ATOM      6  C   UNL     1      -7.768   9.254  -2.753  1.00  0.00     0.102 A 
ATOM      7  N   UNL     1      -9.077   9.290  -2.657  1.00  0.00    -0.165 NA
ATOM      8  C   UNL     1      -7.368   7.845  -2.701  1.00  0.00     0.046 A 
ATOM      9  N   UNL     1      -9.575   7.988  -2.544  1.00  0.00    -0.216 N 
ATOM     10  C   UNL     1      -8.544   7.104  -2.570  1.00  0.00     0.144 A 
ATOM     11  C   UNL     1      -6.125   7.183  -2.757  1.00  0.00     0.029 A 
ATOM     12  N   UNL     1      -8.481   5.738  -2.495  1.00  0.00    -0.306 N 
ATOM     13  C   UNL     1      -7.295   5.103  -2.554  1.00  0.00     0.258 A 
ATOM     14  H   UNL     1      -9.348   5.192  -2.394  1.00  0.00     0.171 HD
ATOM     15  O   UNL     1      -7.261   3.885  -2.490  1.00  0.00    -0.269 OA
BRANCH   6  16
ATOM     16  C   UNL     1      -6.864  10.421  -2.888  1.00  0.00     0.003 A 
ATOM     17  C   UNL     1      -4.256  13.786  -3.277  1.00  0.00     0.044 C 
ATOM     18  C   UNL     1      -5.175  12.600  -3.140  1.00  0.00    -0.051 A 
ATOM     19  C   UNL     1      -4.769  11.494  -2.415  1.00  0.00     0.004 A 
ATOM     20  C   UNL     1      -6.422  12.622  -3.739  1.00  0.00     0.004 A 
ATOM     21  C   UNL     1      -5.609  10.407  -2.282  1.00  0.00     0.011 A 
ATOM     22  C   UNL     1      -7.268  11.538  -3.617  1.00  0.00     0.011 A 
ENDBRANCH   6  16
BRANCH   9  23
ATOM     23  C   UNL     1     -10.928   7.648  -2.422  1.00  0.00     0.067 A 
ATOM     24  C   UNL     1     -11.792   8.472  -1.712  1.00  0.00     0.028 A 
ATOM     25  C   UNL     1     -11.411   6.489  -3.015  1.00  0.00     0.028 A 
ATOM     26  C   UNL     1     -13.126   8.134  -1.594  1.00  0.00     0.002 A 
ATOM     27  C   UNL     1     -12.744   6.153  -2.888  1.00  0.00     0.002 A 
ATOM     28  C   UNL     1     -13.602   6.976  -2.181  1.00  0.00     0.000 A 
ENDBRANCH   9  23
ENDBRANCH   4   5
ENDBRANCH   1   4
BRANCH   1  29
ATOM     29  C   UNL     1      -3.019   4.119  -1.389  1.00  0.00     0.265 C 
BRANCH  29  30
ATOM     30  C   UNL     1      -2.559   3.864   0.048  1.00  0.00     0.097 C 
BRANCH  30  31
ATOM     31  C   UNL     1      -1.241   3.133   0.031  1.00  0.00    -0.038 A 
ATOM     32  C   UNL     1      -0.057   3.846   0.023  1.00  0.00     0.054 A 
ATOM     33  C   UNL     1      -1.219   1.751   0.017  1.00  0.00     0.008 A 
ATOM     34  C   UNL     1       1.155   3.176   0.008  1.00  0.00     0.160 A 
ATOM     35  C   UNL     1      -0.013   1.076   0.008  1.00  0.00     0.051 A 
ATOM     36  C   UNL     1       1.178   1.785   0.000  1.00  0.00     0.160 A 
BRANCH  34  37
ATOM     37  O   UNL     1       2.321   3.877   0.001  1.00  0.00    -0.493 OA
ATOM     38  C   UNL     1       2.222   5.302   0.010  1.00  0.00     0.278 C 
ENDBRANCH  34  37
BRANCH  36  39
ATOM     39  O   UNL     1       2.365   1.123  -0.015  1.00  0.00    -0.493 OA
ATOM     40  C   UNL     1       2.312  -0.305  -0.023  1.00  0.00     0.278 C 
ENDBRANCH  36  39
ENDBRANCH  30  31
ENDBRANCH  29  30
ENDBRANCH   1  29
TORSDOF 9
