REMARK SMILES O=C(NC1CC[NH+](Cc2ccccc2)CC1)c1ccc(CNC(=O)[C@]23C[C@H]4C[C@H](C[C@H](C4)C2)C3)cc1
REMARK SMILES IDX 17 1 18 2 19 3 20 4 35 5 36 6 2 7 3 8 1 10 4 11 7 12 15 13
REMARK SMILES IDX 6 14 16 16 5 17 8 18 9 19 12 20 13 21 11 22 14 23 10 24
REMARK SMILES IDX 21 25 22 26 23 27 24 29 25 30 26 31 33 32 34 33 27 34 31 35
REMARK SMILES IDX 29 36 28 37 32 38 30 39
REMARK H PARENT 3 9 7 15 22 28
REMARK Flexibility Score: inf
ROOT
ATOM      1  C   UNL     1      -5.737   3.851   0.050  1.00  0.00     0.039 A 
ATOM      2  C   UNL     1      -5.204   3.410  -1.162  1.00  0.00     0.014 A 
ATOM      3  C   UNL     1      -4.143   2.527  -1.165  1.00  0.00     0.006 A 
ATOM      4  C   UNL     1      -3.608   2.080   0.030  1.00  0.00    -0.029 A 
ATOM      5  C   UNL     1      -4.135   2.510   1.235  1.00  0.00     0.006 A 
ATOM      6  C   UNL     1      -5.193   3.396   1.252  1.00  0.00     0.014 A 
ENDROOT
BRANCH   1   7
ATOM      7  C   UNL     1      -6.874   4.796   0.061  1.00  0.00     0.251 C 
ATOM      8  N   UNL     1      -7.387   5.220   1.233  1.00  0.00    -0.349 N 
ATOM      9  H   UNL     1      -6.987   4.886   2.121  1.00  0.00     0.164 HD
ATOM     10  O   UNL     1      -7.346   5.190  -0.988  1.00  0.00    -0.269 OA
BRANCH   8  11
ATOM     11  C   UNL     1      -8.514   6.157   1.243  1.00  0.00     0.093 C 
ATOM     12  N   UNL     1      -9.875   8.385   2.476  1.00  0.00    -0.331 N 
ATOM     13  C   UNL     1      -9.165   8.567   1.204  1.00  0.00     0.264 C 
ATOM     14  C   UNL     1     -10.430   7.029   2.585  1.00  0.00     0.264 C 
ATOM     15  H   UNL     1      -9.193   8.508   3.237  1.00  0.00     0.348 HD
ATOM     16  C   UNL     1      -7.988   7.590   1.131  1.00  0.00     0.086 C 
ATOM     17  C   UNL     1      -9.291   6.007   2.554  1.00  0.00     0.086 C 
BRANCH  12  18
ATOM     18  C   UNL     1     -10.926   9.398   2.641  1.00  0.00     0.299 C 
BRANCH  18  19
ATOM     19  C   UNL     1     -10.294  10.760   2.769  1.00  0.00     0.006 A 
ATOM     20  C   UNL     1      -9.136  13.260   3.002  1.00  0.00     0.000 A 
ATOM     21  C   UNL     1      -9.370  12.498   4.132  1.00  0.00     0.001 A 
ATOM     22  C   UNL     1      -9.481  12.772   1.756  1.00  0.00     0.001 A 
ATOM     23  C   UNL     1      -9.955  11.251   4.016  1.00  0.00     0.009 A 
ATOM     24  C   UNL     1     -10.060  11.522   1.639  1.00  0.00     0.009 A 
ENDBRANCH  18  19
ENDBRANCH  12  18
ENDBRANCH   8  11
ENDBRANCH   1   7
BRANCH   4  25
ATOM     25  C   UNL     1      -2.449   1.117   0.020  1.00  0.00     0.151 C 
BRANCH  25  26
ATOM     26  N   UNL     1      -1.191   1.867   0.018  1.00  0.00    -0.352 N 
ATOM     27  C   UNL     1      -0.014   1.209   0.009  1.00  0.00     0.226 C 
ATOM     28  H   UNL     1      -1.205   2.897   0.023  1.00  0.00     0.163 HD
ATOM     29  O   UNL     1       0.002  -0.004   0.002  1.00  0.00    -0.274 OA
BRANCH  27  30
ATOM     30  C   UNL     1       1.280   1.980   0.001  1.00  0.00     0.050 C 
ATOM     31  C   UNL     1       2.457   1.002  -0.016  1.00  0.00     0.020 C 
ATOM     32  C   UNL     1       1.361   2.854   1.254  1.00  0.00     0.020 C 
ATOM     33  C   UNL     1       1.337   2.867  -1.245  1.00  0.00     0.020 C 
ATOM     34  C   UNL     1       3.771   1.784  -0.024  1.00  0.00    -0.010 C 
ATOM     35  C   UNL     1       2.676   3.637   1.245  1.00  0.00    -0.010 C 
ATOM     36  C   UNL     1       2.652   3.650  -1.253  1.00  0.00    -0.010 C 
ATOM     37  C   UNL     1       3.828   2.672  -1.270  1.00  0.00     0.007 C 
ATOM     38  C   UNL     1       3.852   2.658   1.229  1.00  0.00     0.007 C 
ATOM     39  C   UNL     1       2.733   4.524   0.000  1.00  0.00     0.007 C 
ENDBRANCH  27  30
ENDBRANCH  25  26
ENDBRANCH   4  25
TORSDOF 7
