REMARK SMILES Cc1cccc(C(=O)NCC(=O)NNC(=O)c2ccc(CSc3ccc(Cl)cc3)cc2)c1
REMARK SMILES IDX 14 1 15 2 16 3 13 5 11 6 12 7 10 9 9 10 7 11 8 12 6 14 1 15
REMARK SMILES IDX 2 16 32 17 3 18 4 19 5 20 17 21 31 22 18 23 30 24 19 25
REMARK SMILES IDX 20 26 21 27 22 28 23 29 29 30 24 31 28 32 25 33 26 34 27 35
REMARK H PARENT 14 4 13 8 9 13
REMARK Flexibility Score: inf
ROOT
ATOM      1  N   UNL     1       4.024   9.812   0.016  1.00  0.00    -0.263 N 
ATOM      2  C   UNL     1       4.253  11.141   0.021  1.00  0.00     0.269 C 
ATOM      3  O   UNL     1       3.318  11.918   0.034  1.00  0.00    -0.267 OA
ATOM      4  H   UNL     1       4.816   9.154   0.005  1.00  0.00     0.191 HD
ENDROOT
BRANCH   1   5
ATOM      5  N   UNL     1       2.710   9.328   0.026  1.00  0.00    -0.266 N 
ATOM      6  C   UNL     1       2.482   7.999   0.021  1.00  0.00     0.257 C 
ATOM      7  O   UNL     1       3.414   7.224   0.008  1.00  0.00    -0.271 OA
ATOM      8  H   UNL     1       1.918   9.986   0.037  1.00  0.00     0.191 HD
BRANCH   6   9
ATOM      9  C   UNL     1       1.068   7.478   0.032  1.00  0.00     0.218 C 
BRANCH   9  10
ATOM     10  N   UNL     1       1.088   6.013   0.024  1.00  0.00    -0.343 N 
ATOM     11  C   UNL     1      -0.070   5.323   0.031  1.00  0.00     0.251 C 
ATOM     12  O   UNL     1      -1.131   5.916   0.044  1.00  0.00    -0.269 OA
ATOM     13  H   UNL     1       1.987   5.510   0.012  1.00  0.00     0.164 HD
BRANCH  11  14
ATOM     14  C   UNL     1      -0.050   3.845   0.023  1.00  0.00     0.040 A 
ATOM     15  C   UNL     1      -2.514   0.972   0.019  1.00  0.00     0.044 C 
ATOM     16  C   UNL     1      -1.222   1.748   0.017  1.00  0.00    -0.050 A 
ATOM     17  C   UNL     1      -1.248   3.127   0.031  1.00  0.00     0.017 A 
ATOM     18  C   UNL     1      -0.013   1.076   0.008  1.00  0.00     0.003 A 
ATOM     19  C   UNL     1       1.178   1.781   0.000  1.00  0.00     0.001 A 
ATOM     20  C   UNL     1       1.166   3.160   0.007  1.00  0.00     0.014 A 
ENDBRANCH  11  14
ENDBRANCH   9  10
ENDBRANCH   6   9
ENDBRANCH   1   5
BRANCH   2  21
ATOM     21  C   UNL     1       5.639  11.652   0.010  1.00  0.00     0.041 A 
ATOM     22  C   UNL     1       5.879  13.027   0.015  1.00  0.00     0.014 A 
ATOM     23  C   UNL     1       6.715  10.763   0.001  1.00  0.00     0.014 A 
ATOM     24  C   UNL     1       7.176  13.498   0.006  1.00  0.00     0.005 A 
ATOM     25  C   UNL     1       8.007  11.247  -0.014  1.00  0.00     0.005 A 
ATOM     26  C   UNL     1       8.238  12.611  -0.009  1.00  0.00    -0.038 A 
BRANCH  26  27
ATOM     27  C   UNL     1       9.651  13.133  -0.020  1.00  0.00     0.110 C 
BRANCH  27  28
ATOM     28  S   UNL     1      10.235  13.333   1.686  1.00  0.00    -0.121 SA
BRANCH  28  29
ATOM     29  C   UNL     1      11.879  13.941   1.505  1.00  0.00     0.008 A 
ATOM     30  C   UNL     1      12.648  14.215   2.629  1.00  0.00     0.016 A 
ATOM     31  C   UNL     1      12.411  14.142   0.237  1.00  0.00     0.016 A 
ATOM     32  C   UNL     1      13.936  14.691   2.484  1.00  0.00     0.021 A 
ATOM     33  C   UNL     1      13.698  14.624   0.098  1.00  0.00     0.021 A 
ATOM     34  C   UNL     1      14.461  14.896   1.220  1.00  0.00     0.041 A 
ATOM     35  Cl  UNL     1      16.081  15.495   1.042  1.00  0.00    -0.084 Cl
ENDBRANCH  28  29
ENDBRANCH  27  28
ENDBRANCH  26  27
ENDBRANCH   2  21
TORSDOF 8
