REMARK SMILES O=C(NNC(=O)c1nn(Cc2ccccc2)c(=O)c2ccccc12)c1cc(Cl)cc(Cl)c1
REMARK SMILES IDX 9 1 17 2 18 3 19 4 20 5 21 6 22 7 23 8 24 9 7 10 8 11 10 12
REMARK SMILES IDX 11 13 14 14 15 15 13 16 16 17 12 18 5 19 6 20 4 21 3 23 2 24
REMARK SMILES IDX 1 26 25 27 26 28 32 29 27 30 30 31 29 32 28 33 31 34
REMARK H PARENT 4 22 3 25
REMARK Flexibility Score: inf
ROOT
ATOM      1  N   UNL     1      -1.271  11.474   0.071  1.00  0.00    -0.224 N 
ATOM      2  C   UNL     1      -2.354  12.278   0.085  1.00  0.00     0.274 A 
ATOM      3  O   UNL     1      -2.230  13.489   0.090  1.00  0.00    -0.267 OA
ATOM      4  C   UNL     1      -3.686  11.658   0.096  1.00  0.00     0.051 A 
ATOM      5  C   UNL     1      -4.864  12.399   0.110  1.00  0.00     0.014 A 
ATOM      6  C   UNL     1      -6.075  11.741   0.119  1.00  0.00     0.001 A 
ATOM      7  C   UNL     1      -6.130  10.353   0.112  1.00  0.00     0.001 A 
ATOM      8  C   UNL     1      -4.974   9.601   0.098  1.00  0.00     0.011 A 
ATOM      9  C   UNL     1      -3.741  10.245   0.089  1.00  0.00     0.021 A 
ATOM     10  C   UNL     1      -2.462   9.518   0.073  1.00  0.00     0.158 A 
ATOM     11  N   UNL     1      -1.340  10.196   0.071  1.00  0.00    -0.163 NA
ENDROOT
BRANCH   1  12
ATOM     12  C   UNL     1       0.055  12.097   0.060  1.00  0.00     0.184 C 
BRANCH  12  13
ATOM     13  C   UNL     1       0.524  12.304   1.477  1.00  0.00    -0.026 A 
ATOM     14  C   UNL     1       1.385  12.684   4.076  1.00  0.00     0.000 A 
ATOM     15  C   UNL     1       0.661  13.673   3.436  1.00  0.00     0.000 A 
ATOM     16  C   UNL     1       1.679  11.506   3.417  1.00  0.00     0.000 A 
ATOM     17  C   UNL     1       0.235  13.485   2.135  1.00  0.00     0.005 A 
ATOM     18  C   UNL     1       1.248  11.315   2.117  1.00  0.00     0.005 A 
ENDBRANCH  12  13
ENDBRANCH   1  12
BRANCH  10  19
ATOM     19  C   UNL     1      -2.442   8.041   0.066  1.00  0.00     0.290 C 
ATOM     20  O   UNL     1      -3.486   7.419   0.074  1.00  0.00    -0.266 OA
ATOM     21  N   UNL     1      -1.265   7.383   0.051  1.00  0.00    -0.262 N 
ATOM     22  H   UNL     1      -0.381   7.911   0.045  1.00  0.00     0.191 HD
BRANCH  21  23
ATOM     23  N   UNL     1      -1.246   5.983   0.045  1.00  0.00    -0.263 N 
ATOM     24  C   UNL     1      -0.070   5.325   0.030  1.00  0.00     0.269 C 
ATOM     25  H   UNL     1      -2.131   5.456   0.051  1.00  0.00     0.191 HD
ATOM     26  O   UNL     1       0.974   5.947   0.022  1.00  0.00    -0.267 OA
BRANCH  24  27
ATOM     27  C   UNL     1      -0.050   3.846   0.023  1.00  0.00     0.044 A 
ATOM     28  C   UNL     1      -1.248   3.130   0.031  1.00  0.00     0.034 A 
ATOM     29  C   UNL     1       1.166   3.162   0.007  1.00  0.00     0.034 A 
ATOM     30  C   UNL     1      -1.222   1.749   0.017  1.00  0.00     0.043 A 
ATOM     31  C   UNL     1       1.179   1.782   0.000  1.00  0.00     0.043 A 
ATOM     32  C   UNL     1      -0.013   1.076   0.008  1.00  0.00     0.041 A 
ATOM     33  Cl  UNL     1      -2.711   0.855   0.019  1.00  0.00    -0.084 Cl
ATOM     34  Cl  UNL     1       2.691   0.929  -0.019  1.00  0.00    -0.084 Cl
ENDBRANCH  24  27
ENDBRANCH  21  23
ENDBRANCH  10  19
TORSDOF 5
