REMARK SMILES CC1CCN(C(=O)C[C@@H]2c3nc(NC(=O)CC(C)(C)C)sc3C[C@H]3[C@@]2(C)CC[C@H](O)[C@]3(C)CO)CC1
REMARK SMILES IDX 9 1 10 2 22 3 21 4 12 5 11 6 23 7 24 8 25 9 27 10 28 11
REMARK SMILES IDX 29 12 31 13 32 14 26 15 8 16 6 17 1 18 2 19 36 20 3 21 35 22
REMARK SMILES IDX 4 23 5 24 7 25 33 26 34 27 13 29 14 30 15 32 16 33 17 34
REMARK SMILES IDX 18 35 19 36 20 37 30 38
REMARK H PARENT 34 28 13 31 30 39
REMARK Flexibility Score: inf
ROOT
ATOM      1  C   UNL     1       7.210   0.315  -3.541  1.00  0.00     0.055 C 
ATOM      2  C   UNL     1       6.244   0.466  -2.376  1.00  0.00     0.061 A 
ATOM      3  C   UNL     1       6.578   1.197  -1.283  1.00  0.00     0.030 A 
ATOM      4  S   UNL     1       5.142   1.058  -0.256  1.00  0.00    -0.101 S 
ATOM      5  C   UNL     1       4.212   0.057  -1.331  1.00  0.00     0.189 A 
ATOM      6  N   UNL     1       5.034  -0.093  -2.349  1.00  0.00    -0.224 NA
ATOM      7  C   UNL     1       7.858   1.928  -1.043  1.00  0.00     0.053 C 
ATOM      8  C   UNL     1       8.899   1.377  -2.032  1.00  0.00     0.012 C 
ATOM      9  C   UNL     1       8.326   1.374  -3.443  1.00  0.00    -0.020 C 
ATOM     10  C   UNL     1       9.402   0.981  -4.461  1.00  0.00     0.010 C 
ATOM     11  C   UNL     1      10.620   1.890  -4.333  1.00  0.00     0.033 C 
ATOM     12  C   UNL     1      11.233   1.709  -2.947  1.00  0.00     0.123 C 
ATOM     13  C   UNL     1      10.227   2.088  -1.862  1.00  0.00     0.020 C 
ATOM     14  C   UNL     1      10.082   3.609  -1.819  1.00  0.00     0.017 C 
ATOM     15  C   UNL     1       7.728   2.727  -3.830  1.00  0.00     0.012 C 
ENDROOT
BRANCH   1  16
ATOM     16  C   UNL     1       6.443   0.503  -4.851  1.00  0.00     0.110 C 
BRANCH  16  17
ATOM     17  C   UNL     1       5.440  -0.611  -5.011  1.00  0.00     0.223 C 
ATOM     18  C   UNL     1       0.985   0.454  -7.965  1.00  0.00     0.008 C 
ATOM     19  C   UNL     1       2.368  -0.143  -7.696  1.00  0.00    -0.011 C 
ATOM     20  C   UNL     1       3.354   0.981  -7.372  1.00  0.00     0.025 C 
ATOM     21  C   UNL     1       2.284  -1.109  -6.512  1.00  0.00     0.025 C 
ATOM     22  C   UNL     1       4.741   0.386  -7.134  1.00  0.00     0.119 C 
ATOM     23  C   UNL     1       3.663  -1.730  -6.268  1.00  0.00     0.119 C 
ATOM     24  N   UNL     1       4.645  -0.651  -6.098  1.00  0.00    -0.343 N 
ATOM     25  O   UNL     1       5.348  -1.470  -4.160  1.00  0.00    -0.275 OA
ENDBRANCH  16  17
ENDBRANCH   1  16
BRANCH  13  26
ATOM     26  C   UNL     1      10.841   1.648  -0.513  1.00  0.00     0.165 C 
BRANCH  26  27
ATOM     27  O   UNL     1      12.084   2.323  -0.313  1.00  0.00    -0.396 OA
ATOM     28  H   UNL     1      11.931   3.301  -0.301  1.00  0.00     0.210 HD
ENDBRANCH  26  27
ENDBRANCH  13  26
BRANCH   5  29
ATOM     29  N   UNL     1       2.931  -0.455  -1.159  1.00  0.00    -0.302 N 
ATOM     30  C   UNL     1       2.243  -0.184  -0.032  1.00  0.00     0.226 C 
ATOM     31  H   UNL     1       2.507  -1.040  -1.893  1.00  0.00     0.172 HD
ATOM     32  O   UNL     1       2.742   0.504   0.833  1.00  0.00    -0.275 OA
BRANCH  30  33
ATOM     33  C   UNL     1       0.854  -0.739   0.154  1.00  0.00     0.106 C 
BRANCH  33  34
ATOM     34  C   UNL     1       0.302  -0.286   1.507  1.00  0.00    -0.029 C 
ATOM     35  C   UNL     1       0.252   1.242   1.552  1.00  0.00     0.011 C 
ATOM     36  C   UNL     1       1.210  -0.800   2.626  1.00  0.00     0.011 C 
ATOM     37  C   UNL     1      -1.109  -0.849   1.696  1.00  0.00     0.011 C 
ENDBRANCH  33  34
ENDBRANCH  30  33
ENDBRANCH   5  29
BRANCH  12  38
ATOM     38  O   UNL     1      11.636   0.348  -2.768  1.00  0.00    -0.392 OA
ATOM     39  H   UNL     1      12.305   0.110  -3.458  1.00  0.00     0.210 HD
ENDBRANCH  12  38
TORSDOF 8
