REMARK SMILES COc1cc(C2(CNC(=O)NNC(=O)c3ccccc3-n3cccc3)CCCC2)ccc1OC(F)F
REMARK SMILES IDX 7 1 6 2 29 3 26 4 28 5 27 6 5 7 3 8 32 9 4 10 31 11 30 12
REMARK SMILES IDX 2 13 1 14 33 15 34 16 35 17 36 18 8 19 9 20 10 22 11 23
REMARK SMILES IDX 12 25 13 26 14 28 15 29 20 30 16 31 19 32 17 33 18 34 21 35
REMARK SMILES IDX 25 36 22 37 24 38 23 39
REMARK H PARENT 8 21 11 24 12 27
REMARK Flexibility Score: inf
ROOT
ATOM      1  C   UNL     1      -5.140   8.479   0.113  1.00  0.00     0.129 C 
ENDROOT
BRANCH   1   2
ATOM      2  C   UNL     1      -6.266   7.558   0.586  1.00  0.00     0.013 C 
ATOM      3  C   UNL     1      -7.628   8.268   0.435  1.00  0.00     0.013 C 
ATOM      4  C   UNL     1      -6.326   6.301  -0.300  1.00  0.00     0.013 C 
ATOM      5  C   UNL     1      -8.164   7.775  -0.932  1.00  0.00     0.001 C 
ATOM      6  C   UNL     1      -7.721   6.291  -0.958  1.00  0.00     0.001 C 
BRANCH   2   7
ATOM      7  C   UNL     1      -6.045   7.167   2.024  1.00  0.00    -0.036 A 
ATOM      8  C   UNL     1      -6.679   5.886   3.948  1.00  0.00     0.161 A 
ATOM      9  C   UNL     1      -5.632   6.453   4.668  1.00  0.00     0.167 A 
ATOM     10  C   UNL     1      -6.882   6.246   2.626  1.00  0.00     0.054 A 
ATOM     11  C   UNL     1      -4.796   7.375   4.059  1.00  0.00     0.051 A 
ATOM     12  C   UNL     1      -5.000   7.726   2.737  1.00  0.00     0.008 A 
BRANCH   8  13
ATOM     13  O   UNL     1      -7.502   4.981   4.542  1.00  0.00    -0.493 OA
ATOM     14  C   UNL     1      -8.487   4.359   3.714  1.00  0.00     0.278 C 
ENDBRANCH   8  13
BRANCH   9  15
ATOM     15  O   UNL     1      -5.429   6.103   5.966  1.00  0.00    -0.431 OA
BRANCH  15  16
ATOM     16  C   UNL     1      -4.335   6.725   6.643  1.00  0.00     0.542 C 
ATOM     17  F   UNL     1      -3.142   6.418   5.980  1.00  0.00    -0.167 F 
ATOM     18  F   UNL     1      -4.520   8.112   6.652  1.00  0.00    -0.167 F 
ENDBRANCH  15  16
ENDBRANCH   9  15
ENDBRANCH   2   7
ENDBRANCH   1   2
BRANCH   1  19
ATOM     19  N   UNL     1      -3.869   7.750   0.140  1.00  0.00    -0.336 N 
ATOM     20  C   UNL     1      -2.718   8.391  -0.141  1.00  0.00     0.333 C 
ATOM     21  H   UNL     1      -3.856   6.746   0.373  1.00  0.00     0.165 HD
ATOM     22  O   UNL     1      -2.721   9.593  -0.326  1.00  0.00    -0.247 OA
ATOM     23  N   UNL     1      -1.563   7.700  -0.218  1.00  0.00    -0.249 N 
ATOM     24  H   UNL     1      -0.673   8.200  -0.354  1.00  0.00     0.193 HD
BRANCH  23  25
ATOM     25  N   UNL     1      -1.574   6.304  -0.112  1.00  0.00    -0.262 N 
ATOM     26  C   UNL     1      -0.435   5.606  -0.289  1.00  0.00     0.271 C 
ATOM     27  H   UNL     1      -2.453   5.810   0.101  1.00  0.00     0.191 HD
ATOM     28  O   UNL     1       0.618   6.191  -0.450  1.00  0.00    -0.267 OA
BRANCH  26  29
ATOM     29  C   UNL     1      -0.466   4.130  -0.287  1.00  0.00     0.065 A 
ATOM     30  C   UNL     1       0.530   3.403  -0.955  1.00  0.00     0.058 A 
ATOM     31  C   UNL     1      -1.486   3.450   0.381  1.00  0.00     0.016 A 
ATOM     32  C   UNL     1       0.491   2.016  -0.946  1.00  0.00     0.027 A 
ATOM     33  C   UNL     1      -1.512   2.072   0.374  1.00  0.00     0.001 A 
ATOM     34  C   UNL     1      -0.524   1.357  -0.282  1.00  0.00     0.002 A 
BRANCH  30  35
ATOM     35  N   UNL     1       1.556   4.072  -1.627  1.00  0.00    -0.323 N 
ATOM     36  C   UNL     1       2.894   3.910  -1.402  1.00  0.00     0.091 A 
ATOM     37  C   UNL     1       1.389   4.994  -2.622  1.00  0.00     0.091 A 
ATOM     38  C   UNL     1       3.564   4.724  -2.242  1.00  0.00     0.020 A 
ATOM     39  C   UNL     1       2.607   5.415  -3.014  1.00  0.00     0.020 A 
ENDBRANCH  30  35
ENDBRANCH  26  29
ENDBRANCH  23  25
ENDBRANCH   1  19
TORSDOF 9
