REMARK SMILES Cc1nn(-c2ccccc2)c2sc(C(=O)NNC(=O)c3cc(Br)c[nH]3)cc12
REMARK SMILES IDX 14 1 15 2 16 3 13 5 1 6 2 7 3 8 27 9 4 10 11 11 26 12 12 13
REMARK SMILES IDX 5 14 10 15 6 16 9 17 7 18 8 19 17 20 18 21 19 23 20 24 25 25
REMARK SMILES IDX 21 26 24 27 22 29 23 30
REMARK H PARENT 16 4 17 22 25 28
REMARK Flexibility Score: inf
ROOT
ATOM      1  C   UNL     1       5.030   5.224  -0.016  1.00  0.00     0.279 C 
ATOM      2  O   UNL     1       5.523   4.111  -0.027  1.00  0.00    -0.266 OA
ATOM      3  N   UNL     1       3.690   5.366  -0.003  1.00  0.00    -0.262 N 
ATOM      4  H   UNL     1       3.272   6.308   0.006  1.00  0.00     0.191 HD
ENDROOT
BRANCH   1   5
ATOM      5  C   UNL     1       5.893   6.408  -0.018  1.00  0.00     0.096 A 
ATOM      6  C   UNL     1      10.493   7.451  -0.055  1.00  0.00     0.069 C 
ATOM      7  C   UNL     1       9.221   8.260  -0.039  1.00  0.00     0.069 A 
ATOM      8  N   UNL     1       9.154   9.557  -0.032  1.00  0.00    -0.171 NA
ATOM      9  C   UNL     1       7.894   7.720  -0.029  1.00  0.00     0.035 A 
ATOM     10  N   UNL     1       7.810   9.954  -0.017  1.00  0.00    -0.223 N 
ATOM     11  C   UNL     1       7.049   8.840  -0.016  1.00  0.00     0.128 A 
ATOM     12  C   UNL     1       7.255   6.470  -0.030  1.00  0.00     0.038 A 
ATOM     13  S   UNL     1       5.423   8.130  -0.012  1.00  0.00    -0.110 S 
BRANCH  10  14
ATOM     14  C   UNL     1       7.341  11.274  -0.006  1.00  0.00     0.066 A 
ATOM     15  C   UNL     1       8.041  12.256   0.682  1.00  0.00     0.028 A 
ATOM     16  C   UNL     1       6.177  11.604  -0.688  1.00  0.00     0.028 A 
ATOM     17  C   UNL     1       7.576  13.556   0.691  1.00  0.00     0.002 A 
ATOM     18  C   UNL     1       5.714  12.905  -0.671  1.00  0.00     0.002 A 
ATOM     19  C   UNL     1       6.414  13.880   0.015  1.00  0.00     0.000 A 
ENDBRANCH  10  14
ENDBRANCH   1   5
BRANCH   3  20
ATOM     20  N   UNL     1       2.865   4.234  -0.002  1.00  0.00    -0.262 N 
ATOM     21  C   UNL     1       1.525   4.376   0.011  1.00  0.00     0.286 C 
ATOM     22  H   UNL     1       3.283   3.292  -0.011  1.00  0.00     0.191 HD
ATOM     23  O   UNL     1       1.031   5.489   0.022  1.00  0.00    -0.266 OA
BRANCH  21  24
ATOM     24  C   UNL     1       0.661   3.191   0.013  1.00  0.00     0.107 A 
ATOM     25  N   UNL     1       1.079   1.880   0.002  1.00  0.00    -0.356 N 
ATOM     26  C   UNL     1      -0.718   3.187   0.026  1.00  0.00     0.049 A 
ATOM     27  C   UNL     1      -0.013   1.076   0.008  1.00  0.00     0.098 A 
ATOM     28  H   UNL     1       2.059   1.562  -0.009  1.00  0.00     0.166 HD
ATOM     29  C   UNL     1      -1.125   1.849   0.017  1.00  0.00     0.036 A 
ATOM     30  Br  UNL     1      -2.912   1.229   0.020  1.00  0.00    -0.049 Br
ENDBRANCH  21  24
ENDBRANCH   3  20
TORSDOF 4
