REMARK SMILES CC[C@H](C)Oc1ccc(C(=O)NC(=S)/N=c2\[nH]c(-c3ccc4ccccc4c3)cs2)cc1
REMARK SMILES IDX 6 1 7 2 8 3 9 4 31 5 32 6 5 7 3 8 4 9 2 10 1 11 10 12 11 13
REMARK SMILES IDX 12 14 13 16 14 17 15 18 16 19 30 20 17 21 29 22 18 23 19 25
REMARK SMILES IDX 28 26 20 27 27 28 21 29 22 30 26 31 23 32 25 33 24 34
REMARK H PARENT 12 15 17 24
REMARK Flexibility Score: inf
ROOT
ATOM      1  C   UNL     1       0.951   1.580  -0.238  1.00  0.00     0.119 A 
ATOM      2  C   UNL     1       2.047   0.729  -0.324  1.00  0.00     0.047 A 
ATOM      3  C   UNL     1       3.323   1.246  -0.340  1.00  0.00     0.017 A 
ATOM      4  C   UNL     1       3.516   2.628  -0.258  1.00  0.00     0.040 A 
ATOM      5  C   UNL     1       2.412   3.479  -0.166  1.00  0.00     0.017 A 
ATOM      6  C   UNL     1       1.139   2.955  -0.156  1.00  0.00     0.047 A 
ENDROOT
BRANCH   1   7
ATOM      7  O   UNL     1      -0.305   1.067  -0.229  1.00  0.00    -0.491 OA
BRANCH   7   8
ATOM      8  C   UNL     1      -1.387   2.000  -0.226  1.00  0.00     0.170 C 
ATOM      9  C   UNL     1      -1.678   2.448  -1.659  1.00  0.00     0.053 C 
BRANCH   8  10
ATOM     10  C   UNL     1      -2.633   1.335   0.363  1.00  0.00     0.041 C 
ATOM     11  C   UNL     1      -2.384   0.999   1.835  1.00  0.00     0.008 C 
ENDBRANCH   8  10
ENDBRANCH   7   8
ENDBRANCH   1   7
BRANCH   4  12
ATOM     12  C   UNL     1       4.881   3.186  -0.269  1.00  0.00     0.257 C 
ATOM     13  O   UNL     1       5.048   4.388  -0.199  1.00  0.00    -0.269 OA
ATOM     14  N   UNL     1       5.945   2.363  -0.358  1.00  0.00    -0.297 N 
ATOM     15  H   UNL     1       5.804   1.344  -0.418  1.00  0.00     0.172 HD
BRANCH  14  16
ATOM     16  C   UNL     1       7.193   2.872  -0.368  1.00  0.00     0.202 C 
ATOM     17  S   UNL     1       7.426   4.566  -0.269  1.00  0.00    -0.038 S 
BRANCH  16  18
ATOM     18  N   UNL     1       8.246   2.057  -0.456  1.00  0.00    -0.192 NA
ATOM     19  C   UNL     1       9.113   1.979   0.550  1.00  0.00     0.189 A 
ATOM     20  S   UNL     1      10.480   0.927   0.726  1.00  0.00    -0.105 S 
ATOM     21  N   UNL     1       9.152   2.711   1.702  1.00  0.00    -0.330 N 
ATOM     22  C   UNL     1      11.044   1.495   2.321  1.00  0.00     0.095 A 
ATOM     23  C   UNL     1      10.140   2.458   2.611  1.00  0.00     0.058 A 
ATOM     24  H   UNL     1       8.449   3.442   1.882  1.00  0.00     0.169 HD
BRANCH  23  25
ATOM     25  C   UNL     1      10.222   3.220   3.875  1.00  0.00    -0.001 A 
ATOM     26  C   UNL     1      11.236   2.946   4.777  1.00  0.00     0.019 A 
ATOM     27  C   UNL     1       9.273   4.220   4.150  1.00  0.00     0.011 A 
ATOM     28  C   UNL     1      11.309   3.673   5.975  1.00  0.00    -0.018 A 
ATOM     29  C   UNL     1       9.323   4.929   5.306  1.00  0.00     0.009 A 
ATOM     30  C   UNL     1      10.342   4.676   6.243  1.00  0.00    -0.018 A 
ATOM     31  C   UNL     1      12.324   3.425   6.916  1.00  0.00     0.009 A 
ATOM     32  C   UNL     1      10.418   5.400   7.444  1.00  0.00     0.009 A 
ATOM     33  C   UNL     1      12.366   4.148   8.068  1.00  0.00     0.001 A 
ATOM     34  C   UNL     1      11.415   5.133   8.332  1.00  0.00     0.001 A 
ENDBRANCH  23  25
ENDBRANCH  16  18
ENDBRANCH  14  16
ENDBRANCH   4  12
TORSDOF 7
