REMARK SMILES Cc1cc(=O)oc2cc(NC(=S)NNC(=O)c3ccc4c(c3)c(C)c(C)n4Cc3ccccc3)ccc12
REMARK SMILES IDX 14 1 15 2 16 3 13 5 11 7 12 8 10 9 9 11 1 12 2 13 37 14 3 15
REMARK SMILES IDX 7 16 36 17 4 18 6 19 8 20 35 21 5 22 17 23 22 24 18 25 21 26
REMARK SMILES IDX 19 27 20 28 23 29 27 30 25 31 24 32 26 33 28 34 29 35 34 36
REMARK SMILES IDX 30 37 33 38 31 39 32 40
REMARK H PARENT 14 4 13 6 10 10
REMARK Flexibility Score: inf
ROOT
ATOM      1  N   UNL     1       1.119   1.944   0.008  1.00  0.00    -0.264 N 
ATOM      2  C   UNL     1      -0.051   1.276   0.023  1.00  0.00     0.269 C 
ATOM      3  O   UNL     1      -0.067   0.082   0.250  1.00  0.00    -0.267 OA
ATOM      4  H   UNL     1       1.132   2.956  -0.184  1.00  0.00     0.191 HD
ENDROOT
BRANCH   1   5
ATOM      5  N   UNL     1       2.318   1.263   0.253  1.00  0.00    -0.274 N 
ATOM      6  H   UNL     1       2.305   0.251   0.445  1.00  0.00     0.190 HD
BRANCH   5   7
ATOM      7  C   UNL     1       3.489   1.931   0.237  1.00  0.00     0.189 C 
ATOM      8  S   UNL     1       4.954   1.097   0.537  1.00  0.00    -0.039 S 
BRANCH   7   9
ATOM      9  N   UNL     1       3.506   3.255  -0.014  1.00  0.00    -0.331 N 
ATOM     10  H   UNL     1       2.636   3.740  -0.278  1.00  0.00     0.169 HD
BRANCH   9  11
ATOM     11  C   UNL     1       4.700   3.968   0.084  1.00  0.00     0.044 A 
ATOM     12  C   UNL     1       9.293   5.887   1.518  1.00  0.00     0.045 C 
ATOM     13  C   UNL     1       8.326   6.126   0.387  1.00  0.00    -0.033 A 
ATOM     14  C   UNL     1       7.075   5.372   0.295  1.00  0.00     0.021 A 
ATOM     15  C   UNL     1       8.592   7.048  -0.575  1.00  0.00     0.098 A 
ATOM     16  C   UNL     1       6.201   5.629  -0.779  1.00  0.00     0.140 A 
ATOM     17  C   UNL     1       6.743   4.407   1.254  1.00  0.00     0.014 A 
ATOM     18  C   UNL     1       7.671   7.254  -1.623  1.00  0.00     0.336 A 
ATOM     19  O   UNL     1       6.526   6.559  -1.702  1.00  0.00    -0.423 OA
ATOM     20  C   UNL     1       5.014   4.920  -0.875  1.00  0.00     0.074 A 
ATOM     21  C   UNL     1       5.568   3.722   1.148  1.00  0.00     0.027 A 
ATOM     22  O   UNL     1       7.923   8.084  -2.478  1.00  0.00    -0.246 OA
ENDBRANCH   9  11
ENDBRANCH   7   9
ENDBRANCH   5   7
ENDBRANCH   1   5
BRANCH   2  23
ATOM     23  C   UNL     1      -1.314   1.994  -0.241  1.00  0.00     0.042 A 
ATOM     24  C   UNL     1      -2.522   1.303  -0.231  1.00  0.00     0.024 A 
ATOM     25  C   UNL     1      -1.297   3.373  -0.497  1.00  0.00     0.016 A 
ATOM     26  C   UNL     1      -3.706   1.992  -0.482  1.00  0.00     0.004 A 
ATOM     27  C   UNL     1      -2.454   4.048  -0.749  1.00  0.00     0.028 A 
ATOM     28  C   UNL     1      -3.674   3.375  -0.743  1.00  0.00     0.049 A 
ATOM     29  C   UNL     1      -5.117   1.599  -0.548  1.00  0.00    -0.023 A 
ATOM     30  N   UNL     1      -4.972   3.778  -0.950  1.00  0.00    -0.340 N 
ATOM     31  C   UNL     1      -5.818   2.708  -0.830  1.00  0.00     0.019 A 
ATOM     32  C   UNL     1      -5.674   0.214  -0.340  1.00  0.00     0.047 C 
ATOM     33  C   UNL     1      -7.315   2.768  -0.991  1.00  0.00     0.065 C 
BRANCH  30  34
ATOM     34  C   UNL     1      -5.388   5.149  -1.253  1.00  0.00     0.157 C 
BRANCH  34  35
ATOM     35  C   UNL     1      -5.392   5.354  -2.746  1.00  0.00    -0.028 A 
ATOM     36  C   UNL     1      -6.535   5.091  -3.477  1.00  0.00     0.005 A 
ATOM     37  C   UNL     1      -4.254   5.810  -3.384  1.00  0.00     0.005 A 
ATOM     38  C   UNL     1      -6.539   5.279  -4.847  1.00  0.00     0.000 A 
ATOM     39  C   UNL     1      -4.256   5.993  -4.754  1.00  0.00     0.000 A 
ATOM     40  C   UNL     1      -5.399   5.730  -5.485  1.00  0.00     0.000 A 
ENDBRANCH  34  35
ENDBRANCH  30  34
ENDBRANCH   2  23
TORSDOF 7
