REMARK SMILES COC(=O)c1sc2nc(CN(C)Cc3c(C)n[nH]c3C)ccc2c1NC(=O)C1CCCCC1
REMARK SMILES IDX 10 1 11 2 12 3 13 4 14 5 20 6 19 7 18 8 17 9 15 11 16 12
REMARK SMILES IDX 9 13 8 14 21 15 7 16 22 17 23 18 6 19 24 20 5 21 25 22 26 23
REMARK SMILES IDX 27 25 28 26 33 27 29 28 32 29 30 30 31 31 3 32 4 33 2 34
REMARK SMILES IDX 1 35
REMARK H PARENT 18 10 25 24
REMARK Flexibility Score: inf
ROOT
ATOM      1  C   UNL     1       3.936  -2.302  -2.489  1.00  0.00     0.140 C 
ENDROOT
BRANCH   1   2
ATOM      2  N   UNL     1       4.776  -2.981  -1.479  1.00  0.00    -0.296 NA
ATOM      3  C   UNL     1       5.929  -2.127  -1.125  1.00  0.00     0.106 C 
BRANCH   2   4
ATOM      4  C   UNL     1       5.250  -4.277  -2.006  1.00  0.00     0.124 C 
BRANCH   4   5
ATOM      5  C   UNL     1       5.913  -5.042  -0.889  1.00  0.00     0.010 A 
ATOM      6  C   UNL     1       3.833  -6.237  -0.022  1.00  0.00     0.066 C 
ATOM      7  C   UNL     1       5.300  -5.890  -0.032  1.00  0.00     0.037 A 
ATOM      8  N   UNL     1       6.236  -6.369   0.814  1.00  0.00    -0.282 N 
ATOM      9  N   UNL     1       7.466  -5.796   0.465  1.00  0.00    -0.180 NA
ATOM     10  H   UNL     1       6.075  -7.037   1.581  1.00  0.00     0.190 HD
ATOM     11  C   UNL     1       7.272  -5.006  -0.560  1.00  0.00     0.064 A 
ATOM     12  C   UNL     1       8.330  -4.194  -1.262  1.00  0.00     0.069 C 
ENDBRANCH   4   5
ENDBRANCH   2   4
ENDBRANCH   1   2
BRANCH   1  13
ATOM     13  C   UNL     1       3.289  -1.098  -1.854  1.00  0.00     0.056 A 
ATOM     14  N   UNL     1       2.172  -1.241  -1.168  1.00  0.00    -0.240 NA
ATOM     15  C   UNL     1       3.873   0.152  -1.995  1.00  0.00     0.026 A 
ATOM     16  C   UNL     1       1.580  -0.213  -0.600  1.00  0.00     0.126 A 
ATOM     17  C   UNL     1       3.294   1.259  -1.421  1.00  0.00     0.015 A 
ATOM     18  C   UNL     1       2.094   1.101  -0.684  1.00  0.00     0.036 A 
ATOM     19  S   UNL     1       0.105  -0.034   0.373  1.00  0.00    -0.106 S 
ATOM     20  C   UNL     1       1.310   2.116   0.004  1.00  0.00     0.076 A 
ATOM     21  C   UNL     1       0.165   1.724   0.661  1.00  0.00     0.138 A 
BRANCH  20  22
ATOM     22  N   UNL     1       1.708   3.449  -0.003  1.00  0.00    -0.324 N 
ATOM     23  C   UNL     1       3.004   3.767   0.186  1.00  0.00     0.227 C 
ATOM     24  H   UNL     1       1.012   4.193  -0.153  1.00  0.00     0.170 HD
ATOM     25  O   UNL     1       3.838   2.890   0.266  1.00  0.00    -0.274 OA
BRANCH  23  26
ATOM     26  C   UNL     1       3.417   5.212   0.297  1.00  0.00     0.079 C 
ATOM     27  C   UNL     1       4.930   5.295   0.507  1.00  0.00     0.013 C 
ATOM     28  C   UNL     1       3.038   5.951  -0.988  1.00  0.00     0.013 C 
ATOM     29  C   UNL     1       5.349   6.762   0.620  1.00  0.00     0.001 C 
ATOM     30  C   UNL     1       3.458   7.418  -0.874  1.00  0.00     0.001 C 
ATOM     31  C   UNL     1       4.971   7.502  -0.665  1.00  0.00     0.000 C 
ENDBRANCH  23  26
ENDBRANCH  20  22
BRANCH  21  32
ATOM     32  C   UNL     1      -0.750   2.527   1.387  1.00  0.00     0.350 C 
ATOM     33  O   UNL     1      -0.512   3.707   1.569  1.00  0.00    -0.245 OA
BRANCH  32  34
ATOM     34  O   UNL     1      -1.884   1.984   1.876  1.00  0.00    -0.465 OA
ATOM     35  C   UNL     1      -2.760   2.852   2.598  1.00  0.00     0.282 C 
ENDBRANCH  32  34
ENDBRANCH  21  32
ENDBRANCH   1  13
TORSDOF 8
