REMARK SMILES Cc1ccc(S(=O)(=O)c2ccc(NNC(=O)C(c3ccccc3)c3ccccc3)cc2)cc1
REMARK SMILES IDX 13 1 12 3 9 4 31 5 10 6 30 7 11 8 6 9 7 10 8 11 5 12 1 13
REMARK SMILES IDX 2 14 33 15 3 16 32 17 4 18 14 19 15 20 16 22 17 23 18 24
REMARK SMILES IDX 23 25 19 26 22 27 20 28 21 29 24 30 29 31 25 32 28 33 26 34
REMARK SMILES IDX 27 35
REMARK H PARENT 13 2 14 21
REMARK Flexibility Score: inf
ROOT
ATOM      1  N   UNL     1      -2.290   2.913   2.389  1.00  0.00    -0.299 N 
ATOM      2  H   UNL     1      -1.644   3.584   2.829  1.00  0.00     0.188 HD
ENDROOT
BRANCH   1   3
ATOM      3  C   UNL     1      -3.635   2.892   2.762  1.00  0.00     0.054 A 
ATOM      4  C   UNL     1      -6.301   2.850   3.501  1.00  0.00     0.072 A 
ATOM      5  C   UNL     1      -5.838   1.970   2.540  1.00  0.00     0.023 A 
ATOM      6  C   UNL     1      -5.436   3.751   4.093  1.00  0.00     0.023 A 
ATOM      7  C   UNL     1      -4.509   1.992   2.165  1.00  0.00     0.029 A 
ATOM      8  C   UNL     1      -4.104   3.774   3.727  1.00  0.00     0.029 A 
BRANCH   4   9
ATOM      9  S   UNL     1      -7.999   2.823   3.971  1.00  0.00     0.206 S 
ATOM     10  O   UNL     1      -8.485   1.523   3.666  1.00  0.00    -0.219 OA
ATOM     11  O   UNL     1      -8.067   3.373   5.280  1.00  0.00    -0.219 OA
BRANCH   9  12
ATOM     12  C   UNL     1      -8.852   3.942   2.910  1.00  0.00     0.072 A 
ATOM     13  C   UNL     1     -10.919   6.653   0.337  1.00  0.00     0.044 C 
ATOM     14  C   UNL     1     -10.190   5.697   1.245  1.00  0.00    -0.051 A 
ATOM     15  C   UNL     1      -9.655   6.147   2.438  1.00  0.00     0.005 A 
ATOM     16  C   UNL     1     -10.056   4.369   0.885  1.00  0.00     0.005 A 
ATOM     17  C   UNL     1      -8.990   5.268   3.272  1.00  0.00     0.021 A 
ATOM     18  C   UNL     1      -9.387   3.491   1.718  1.00  0.00     0.021 A 
ENDBRANCH   9  12
ENDBRANCH   4   9
ENDBRANCH   1   3
BRANCH   1  19
ATOM     19  N   UNL     1      -1.818   2.023   1.415  1.00  0.00    -0.269 N 
ATOM     20  C   UNL     1      -0.520   2.044   1.055  1.00  0.00     0.250 C 
ATOM     21  H   UNL     1      -2.464   1.352   0.975  1.00  0.00     0.191 HD
ATOM     22  O   UNL     1       0.241   2.833   1.573  1.00  0.00    -0.272 OA
BRANCH  20  23
ATOM     23  C   UNL     1      -0.013   1.086   0.008  1.00  0.00     0.140 C 
BRANCH  23  24
ATOM     24  C   UNL     1       1.461   1.313  -0.210  1.00  0.00    -0.031 A 
ATOM     25  C   UNL     1       1.927   2.578  -0.518  1.00  0.00     0.005 A 
ATOM     26  C   UNL     1       2.348   0.259  -0.095  1.00  0.00     0.005 A 
ATOM     27  C   UNL     1       3.279   2.786  -0.718  1.00  0.00     0.000 A 
ATOM     28  C   UNL     1       3.699   0.467  -0.299  1.00  0.00     0.000 A 
ATOM     29  C   UNL     1       4.165   1.731  -0.608  1.00  0.00     0.000 A 
ENDBRANCH  23  24
BRANCH  23  30
ATOM     30  C   UNL     1      -0.753   1.316  -1.284  1.00  0.00    -0.031 A 
ATOM     31  C   UNL     1      -1.344   0.254  -1.942  1.00  0.00     0.005 A 
ATOM     32  C   UNL     1      -0.846   2.592  -1.810  1.00  0.00     0.005 A 
ATOM     33  C   UNL     1      -2.023   0.465  -3.127  1.00  0.00     0.000 A 
ATOM     34  C   UNL     1      -1.520   2.803  -2.998  1.00  0.00     0.000 A 
ATOM     35  C   UNL     1      -2.111   1.740  -3.655  1.00  0.00     0.000 A 
ENDBRANCH  23  30
ENDBRANCH  20  23
ENDBRANCH   1  19
TORSDOF 7
