REMARK SMILES O=C(NC1CCN(CN2C(=O)c3cccc4c(Cl)ccc2c34)CC1)c1ccc(F)cc1
REMARK SMILES IDX 7 1 6 2 5 3 4 4 24 5 23 6 8 7 9 8 14 9 13 10 15 11 12 12
REMARK SMILES IDX 16 13 22 14 10 15 17 16 21 17 11 18 19 19 18 20 20 21 3 22
REMARK SMILES IDX 2 23 1 25 25 26 31 27 26 28 30 29 27 30 28 31 29 32
REMARK H PARENT 3 24
REMARK Flexibility Score: inf
ROOT
ATOM      1  N   UNL     1      -4.230   3.727  -1.325  1.00  0.00    -0.285 NA
ATOM      2  C   UNL     1      -3.344   2.898  -2.152  1.00  0.00     0.088 C 
ATOM      3  C   UNL     1      -3.806   2.952  -3.610  1.00  0.00     0.040 C 
ATOM      4  C   UNL     1      -5.247   2.441  -3.703  1.00  0.00     0.084 C 
ATOM      5  C   UNL     1      -6.141   3.291  -2.795  1.00  0.00     0.040 C 
ATOM      6  C   UNL     1      -5.611   3.227  -1.361  1.00  0.00     0.088 C 
ENDROOT
BRANCH   1   7
ATOM      7  C   UNL     1      -3.736   3.810   0.056  1.00  0.00     0.213 C 
BRANCH   7   8
ATOM      8  N   UNL     1      -2.296   4.079   0.044  1.00  0.00    -0.294 N 
ATOM      9  C   UNL     1       2.116   5.342   0.008  1.00  0.00     0.002 A 
ATOM     10  C   UNL     1       0.860   5.945   0.023  1.00  0.00     0.014 A 
ATOM     11  C   UNL     1       2.296   3.984   0.001  1.00  0.00     0.010 A 
ATOM     12  C   UNL     1      -0.279   5.157   0.030  1.00  0.00     0.050 A 
ATOM     13  C   UNL     1       1.166   3.149   0.007  1.00  0.00     0.003 A 
ATOM     14  C   UNL     1      -0.084   3.768   0.022  1.00  0.00     0.020 A 
ATOM     15  C   UNL     1      -1.737   5.317   0.044  1.00  0.00     0.260 C 
ATOM     16  C   UNL     1       1.183   1.743   0.000  1.00  0.00     0.049 A 
ATOM     17  C   UNL     1      -1.306   3.103   0.030  1.00  0.00     0.054 A 
ATOM     18  O   UNL     1      -2.340   6.374   0.055  1.00  0.00    -0.269 OA
ATOM     19  C   UNL     1      -0.013   1.076   0.008  1.00  0.00     0.023 A 
ATOM     20  Cl  UNL     1       2.686   0.873  -0.018  1.00  0.00    -0.084 Cl
ATOM     21  C   UNL     1      -1.248   1.722   0.018  1.00  0.00     0.028 A 
ENDBRANCH   7   8
ENDBRANCH   1   7
BRANCH   4  22
ATOM     22  N   UNL     1      -5.715   2.545  -5.087  1.00  0.00    -0.349 N 
ATOM     23  C   UNL     1      -5.452   1.556  -5.963  1.00  0.00     0.251 C 
ATOM     24  H   UNL     1      -6.245   3.375  -5.390  1.00  0.00     0.164 HD
ATOM     25  O   UNL     1      -4.826   0.577  -5.605  1.00  0.00    -0.269 OA
BRANCH  23  26
ATOM     26  C   UNL     1      -5.924   1.661  -7.359  1.00  0.00     0.040 A 
ATOM     27  C   UNL     1      -5.652   0.637  -8.269  1.00  0.00     0.017 A 
ATOM     28  C   UNL     1      -6.648   2.781  -7.772  1.00  0.00     0.017 A 
ATOM     29  C   UNL     1      -6.095   0.740  -9.571  1.00  0.00     0.040 A 
ATOM     30  C   UNL     1      -7.080   2.877  -9.077  1.00  0.00     0.040 A 
ATOM     31  C   UNL     1      -6.808   1.858  -9.977  1.00  0.00     0.123 A 
ATOM     32  F   UNL     1      -7.239   1.954 -11.253  1.00  0.00    -0.207 F 
ENDBRANCH  23  26
ENDBRANCH   4  22
TORSDOF 4
