REMARK SMILES O=C(Cc1ccc(N2CCC([NH2+]C[C@H]3CCCN(c4ncccn4)C3)CC2)cc1)NCc1ccccc1
REMARK SMILES IDX 8 1 9 2 10 3 11 4 26 5 27 6 7 7 4 8 29 9 5 10 28 11 6 12
REMARK SMILES IDX 3 13 2 14 30 15 1 17 31 18 32 19 35 20 36 21 34 22 37 23
REMARK SMILES IDX 33 24 12 25 13 28 14 29 25 30 15 31 18 32 16 33 17 34 19 35
REMARK SMILES IDX 24 36 20 37 23 38 21 39 22 40
REMARK H PARENT 30 16 12 26 12 27
REMARK Flexibility Score: inf
ROOT
ATOM      1  N   UNL     1      -3.333   2.409  -2.179  1.00  0.00    -0.371 N 
ATOM      2  C   UNL     1      -2.767   1.120  -2.597  1.00  0.00     0.122 C 
ATOM      3  C   UNL     1      -1.917   0.542  -1.462  1.00  0.00     0.086 C 
ATOM      4  C   UNL     1      -0.795   1.527  -1.120  1.00  0.00     0.185 C 
ATOM      5  C   UNL     1      -1.410   2.875  -0.735  1.00  0.00     0.086 C 
ATOM      6  C   UNL     1      -2.275   3.385  -1.890  1.00  0.00     0.122 C 
ENDROOT
BRANCH   1   7
ATOM      7  C   UNL     1      -4.220   2.901  -3.139  1.00  0.00     0.037 A 
ATOM      8  C   UNL     1      -5.975   3.877  -5.043  1.00  0.00    -0.039 A 
ATOM      9  C   UNL     1      -5.334   2.669  -5.250  1.00  0.00     0.006 A 
ATOM     10  C   UNL     1      -5.741   4.598  -3.886  1.00  0.00     0.006 A 
ATOM     11  C   UNL     1      -4.454   2.182  -4.304  1.00  0.00     0.026 A 
ATOM     12  C   UNL     1      -4.865   4.114  -2.934  1.00  0.00     0.026 A 
BRANCH   8  13
ATOM     13  C   UNL     1      -6.932   4.408  -6.079  1.00  0.00     0.135 C 
BRANCH  13  14
ATOM     14  C   UNL     1      -6.180   5.264  -7.065  1.00  0.00     0.224 C 
ATOM     15  N   UNL     1      -6.835   5.849  -8.087  1.00  0.00    -0.352 N 
ATOM     16  H   UNL     1      -7.850   5.710  -8.194  1.00  0.00     0.163 HD
ATOM     17  O   UNL     1      -4.984   5.426  -6.939  1.00  0.00    -0.275 OA
BRANCH  15  18
ATOM     18  C   UNL     1      -6.104   6.681  -9.046  1.00  0.00     0.151 C 
BRANCH  18  19
ATOM     19  C   UNL     1      -7.060   7.212 -10.082  1.00  0.00    -0.029 A 
ATOM     20  C   UNL     1      -8.815   8.187 -11.983  1.00  0.00     0.000 A 
ATOM     21  C   UNL     1      -8.173   6.980 -12.190  1.00  0.00     0.000 A 
ATOM     22  C   UNL     1      -8.579   8.906 -10.827  1.00  0.00     0.000 A 
ATOM     23  C   UNL     1      -7.292   6.495 -11.241  1.00  0.00     0.005 A 
ATOM     24  C   UNL     1      -7.702   8.419  -9.876  1.00  0.00     0.005 A 
ENDBRANCH  18  19
ENDBRANCH  15  18
ENDBRANCH  13  14
ENDBRANCH   8  13
ENDBRANCH   1   7
BRANCH   4  25
ATOM     25  N   UNL     1      -0.015   0.998   0.015  1.00  0.00    -0.343 N 
ATOM     26  H   UNL     1      -0.477   1.259   0.898  1.00  0.00     0.346 HD
ATOM     27  H   UNL     1       0.031  -0.029  -0.051  1.00  0.00     0.346 HD
BRANCH  25  28
ATOM     28  C   UNL     1       1.353   1.550  -0.003  1.00  0.00     0.266 C 
BRANCH  28  29
ATOM     29  C   UNL     1       2.136   0.985   1.184  1.00  0.00     0.064 C 
ATOM     30  C   UNL     1       1.513   1.479   2.491  1.00  0.00     0.129 C 
ATOM     31  C   UNL     1       3.591   1.457   1.107  1.00  0.00     0.013 C 
ATOM     32  N   UNL     1       2.277   0.954   3.629  1.00  0.00    -0.340 N 
ATOM     33  C   UNL     1       4.353   0.937   2.329  1.00  0.00     0.022 C 
ATOM     34  C   UNL     1       3.666   1.433   3.602  1.00  0.00     0.119 C 
BRANCH  32  35
ATOM     35  C   UNL     1       1.665   1.274   4.828  1.00  0.00     0.225 A 
ATOM     36  N   UNL     1       2.220   0.878   5.964  1.00  0.00    -0.221 NA
ATOM     37  N   UNL     1       0.540   1.975   4.813  1.00  0.00    -0.221 NA
ATOM     38  C   UNL     1       1.661   1.168   7.127  1.00  0.00     0.117 A 
ATOM     39  C   UNL     1      -0.073   2.293   5.941  1.00  0.00     0.117 A 
ATOM     40  C   UNL     1       0.481   1.894   7.147  1.00  0.00     0.040 A 
ENDBRANCH  32  35
ENDBRANCH  28  29
ENDBRANCH  25  28
ENDBRANCH   4  25
TORSDOF 9
