REMARK SMILES COc1ccc(C[NH+]2CCC3(CC2)c2ccccc2[C@@H](NC(=O)c2ccccc2OC)[C@@H]3O)cc1O
REMARK SMILES IDX 20 1 19 2 18 3 17 4 16 5 15 6 14 7 11 8 32 9 10 10 9 11
REMARK SMILES IDX 13 12 12 13 8 14 21 16 22 17 23 18 24 20 29 21 28 22 25 23
REMARK SMILES IDX 27 24 26 25 30 26 31 27 33 28 7 30 6 31 34 32 5 33 35 34
REMARK SMILES IDX 4 35 3 36 36 37 2 39 1 40
REMARK H PARENT 8 15 21 19 33 29 36 38
REMARK Flexibility Score: inf
ROOT
ATOM      1  C   UNL     1      -1.177   6.386   0.046  1.00  0.00     0.142 C 
ATOM      2  C   UNL     1      -1.679   6.602  -1.366  1.00  0.00    -0.019 A 
ATOM      3  C   UNL     1      -1.784   5.718  -2.426  1.00  0.00     0.006 A 
ATOM      4  C   UNL     1      -2.280   6.145  -3.643  1.00  0.00     0.000 A 
ATOM      5  C   UNL     1      -2.674   7.460  -3.803  1.00  0.00     0.000 A 
ATOM      6  C   UNL     1      -2.571   8.344  -2.747  1.00  0.00     0.005 A 
ATOM      7  C   UNL     1      -2.074   7.919  -1.526  1.00  0.00    -0.033 A 
ATOM      8  C   UNL     1      -1.862   8.670  -0.234  1.00  0.00     0.035 C 
ATOM      9  C   UNL     1      -0.902   7.802   0.598  1.00  0.00     0.152 C 
ATOM     10  C   UNL     1      -3.186   8.840   0.506  1.00  0.00     0.076 C 
ATOM     11  C   UNL     1      -2.947   9.628   1.797  1.00  0.00     0.263 C 
ATOM     12  C   UNL     1      -1.054  10.783   0.816  1.00  0.00     0.263 C 
ATOM     13  C   UNL     1      -1.230  10.033  -0.507  1.00  0.00     0.076 C 
ATOM     14  N   UNL     1      -2.378  10.949   1.452  1.00  0.00    -0.331 N 
ATOM     15  H   UNL     1      -3.010  11.420   0.789  1.00  0.00     0.348 HD
ENDROOT
BRANCH   1  16
ATOM     16  N   UNL     1       0.058   5.598   0.031  1.00  0.00    -0.342 N 
ATOM     17  C   UNL     1      -0.003   4.251   0.024  1.00  0.00     0.255 C 
ATOM     18  O   UNL     1      -1.082   3.691   0.030  1.00  0.00    -0.269 OA
ATOM     19  H   UNL     1       0.972   6.072   0.025  1.00  0.00     0.164 HD
BRANCH  17  20
ATOM     20  C   UNL     1       1.241   3.457   0.009  1.00  0.00     0.081 A 
ATOM     21  C   UNL     1       1.183   2.057   0.002  1.00  0.00     0.131 A 
ATOM     22  C   UNL     1       2.358   1.321  -0.008  1.00  0.00     0.047 A 
ATOM     23  C   UNL     1       2.483   4.097   0.001  1.00  0.00     0.018 A 
ATOM     24  C   UNL     1       3.579   1.965  -0.021  1.00  0.00     0.004 A 
ATOM     25  C   UNL     1       3.640   3.349  -0.014  1.00  0.00     0.001 A 
BRANCH  21  26
ATOM     26  O   UNL     1      -0.017   1.425   0.010  1.00  0.00    -0.496 OA
ATOM     27  C   UNL     1       0.002  -0.004   0.002  1.00  0.00     0.278 C 
ENDBRANCH  21  26
ENDBRANCH  17  20
ENDBRANCH   1  16
BRANCH   9  28
ATOM     28  O   UNL     1      -1.225   7.876   1.988  1.00  0.00    -0.390 OA
ATOM     29  H   UNL     1      -0.675   7.216   2.481  1.00  0.00     0.211 HD
ENDBRANCH   9  28
BRANCH  14  30
ATOM     30  C   UNL     1      -2.253  11.777   2.669  1.00  0.00     0.299 C 
BRANCH  30  31
ATOM     31  C   UNL     1      -3.543  11.711   3.446  1.00  0.00     0.010 A 
ATOM     32  C   UNL     1      -4.552  12.618   3.186  1.00  0.00     0.059 A 
ATOM     33  C   UNL     1      -3.711  10.746   4.422  1.00  0.00     0.013 A 
ATOM     34  C   UNL     1      -5.740  12.556   3.896  1.00  0.00     0.158 A 
ATOM     35  C   UNL     1      -4.892  10.681   5.138  1.00  0.00     0.051 A 
ATOM     36  C   UNL     1      -5.910  11.585   4.878  1.00  0.00     0.160 A 
BRANCH  34  37
ATOM     37  O   UNL     1      -6.737  13.445   3.637  1.00  0.00    -0.504 OA
ATOM     38  H   UNL     1      -6.921  13.881   4.507  1.00  0.00     0.293 HD
ENDBRANCH  34  37
BRANCH  36  39
ATOM     39  O   UNL     1      -7.073  11.522   5.581  1.00  0.00    -0.493 OA
ATOM     40  C   UNL     1      -7.176  10.500   6.574  1.00  0.00     0.278 C 
ENDBRANCH  36  39
ENDBRANCH  30  31
ENDBRANCH  14  30
TORSDOF 8
