REMARK SMILES Cc1sc2nc(CSC3=C(C#N)C(C)(C)[C-](C#N)C(=O)N3)nc(N)c2c1C
REMARK SMILES IDX 7 1 6 2 27 3 26 4 25 5 2 6 4 7 23 8 3 9 1 10 5 11 22 12
REMARK SMILES IDX 24 13 8 16 9 17 21 18 10 19 19 20 13 22 16 23 20 24 14 25
REMARK SMILES IDX 15 26 11 27 12 28 17 29 18 30
REMARK H PARENT 24 14 24 15 21 21
REMARK Flexibility Score: inf
ROOT
ATOM      1  C   UNL     1      -1.356  -2.757   0.639  1.00  0.00     0.154 C 
ENDROOT
BRANCH   1   2
ATOM      2  C   UNL     1      -0.356  -1.650   0.851  1.00  0.00     0.142 A 
ATOM      3  C   UNL     1       3.770   1.415   1.574  1.00  0.00     0.046 C 
ATOM      4  C   UNL     1       2.273   1.528   1.435  1.00  0.00    -0.024 A 
ATOM      5  C   UNL     1       1.462   0.341   1.233  1.00  0.00     0.057 A 
ATOM      6  C   UNL     1       1.676   2.727   1.495  1.00  0.00     0.007 A 
ATOM      7  C   UNL     1       0.075   0.582   1.118  1.00  0.00     0.129 A 
ATOM      8  C   UNL     1       1.854  -1.023   1.136  1.00  0.00     0.136 A 
ATOM      9  S   UNL     1      -0.052   2.342   1.282  1.00  0.00    -0.120 S 
ATOM     10  C   UNL     1       2.313   4.078   1.695  1.00  0.00     0.057 C 
ATOM     11  N   UNL     1      -0.780  -0.404   0.933  1.00  0.00    -0.221 NA
ATOM     12  N   UNL     1       0.927  -1.949   0.950  1.00  0.00    -0.215 NA
BRANCH   8  13
ATOM     13  N   UNL     1       3.187  -1.377   1.235  1.00  0.00    -0.383 N 
ATOM     14  H   UNL     1       3.900  -0.647   1.380  1.00  0.00     0.158 HD
ATOM     15  H   UNL     1       3.468  -2.365   1.165  1.00  0.00     0.158 HD
ENDBRANCH   8  13
ENDBRANCH   1   2
BRANCH   1  16
ATOM     16  S   UNL     1      -1.927  -3.370   2.244  1.00  0.00    -0.099 SA
BRANCH  16  17
ATOM     17  C   UNL     1      -3.051  -4.618   1.712  1.00  0.00     0.085 C 
ATOM     18  N   UNL     1      -3.239  -4.840   0.364  1.00  0.00    -0.344 N 
ATOM     19  C   UNL     1      -3.724  -5.359   2.635  1.00  0.00     0.039 C 
ATOM     20  C   UNL     1      -4.329  -5.494  -0.079  1.00  0.00     0.104 C 
ATOM     21  H   UNL     1      -2.538  -4.502  -0.310  1.00  0.00     0.167 HD
ATOM     22  C   UNL     1      -4.690  -6.426   2.190  1.00  0.00    -0.088 C 
ATOM     23  C   UNL     1      -5.369  -5.991   0.890  1.00  0.00    -0.183 C 
ATOM     24  O   UNL     1      -4.474  -5.684  -1.268  1.00  0.00    -0.310 OA
ATOM     25  C   UNL     1      -5.751  -6.640   3.272  1.00  0.00    -0.015 C 
ATOM     26  C   UNL     1      -3.929  -7.732   1.957  1.00  0.00    -0.015 C 
BRANCH  19  27
ATOM     27  C   UNL     1      -3.515  -5.122   4.032  1.00  0.00     0.095 C 
ATOM     28  N   UNL     1      -3.349  -4.933   5.140  1.00  0.00    -0.193 NA
ENDBRANCH  19  27
BRANCH  23  29
ATOM     29  C   UNL     1      -6.329  -4.913   1.175  1.00  0.00    -0.091 C 
ATOM     30  N   UNL     1      -7.071  -4.081   1.394  1.00  0.00    -0.234 NA
ENDBRANCH  23  29
ENDBRANCH  16  17
ENDBRANCH   1  16
TORSDOF 6
