REMARK SMILES NS(=O)(=O)c1ccc(CCNC(=O)c2oc3ccccc3c2CSC2CCCCC2)cc1
REMARK SMILES IDX 12 1 13 2 11 3 14 5 19 6 20 7 18 8 21 9 17 10 16 11 22 12
REMARK SMILES IDX 15 13 23 14 24 15 25 16 30 17 26 18 29 19 27 20 28 21 10 22
REMARK SMILES IDX 9 23 8 24 31 25 7 26 32 27 6 28 5 29 2 30 3 31 4 32 1 33
REMARK H PARENT 11 4 1 34 1 35
REMARK Flexibility Score: inf
ROOT
ATOM      1  C   UNL     1      -0.014   1.212   0.009  1.00  0.00     0.287 C 
ATOM      2  O   UNL     1       0.002  -0.004   0.002  1.00  0.00    -0.266 OA
ATOM      3  N   UNL     1      -1.191   1.870   0.018  1.00  0.00    -0.349 N 
ATOM      4  H   UNL     1      -1.205   2.900   0.024  1.00  0.00     0.163 HD
ENDROOT
BRANCH   1   5
ATOM      5  C   UNL     1       1.248   1.964   0.001  1.00  0.00     0.196 A 
ATOM      6  C   UNL     1       5.417   3.857  -0.028  1.00  0.00     0.001 A 
ATOM      7  C   UNL     1       4.825   2.626  -0.031  1.00  0.00     0.012 A 
ATOM      8  C   UNL     1       4.644   5.010  -0.015  1.00  0.00     0.004 A 
ATOM      9  C   UNL     1       3.431   2.528  -0.017  1.00  0.00     0.025 A 
ATOM     10  C   UNL     1       3.268   4.935  -0.003  1.00  0.00     0.048 A 
ATOM     11  C   UNL     1       2.642   3.693  -0.003  1.00  0.00     0.135 A 
ATOM     12  C   UNL     1       2.488   1.410  -0.014  1.00  0.00     0.021 A 
ATOM     13  O   UNL     1       1.351   3.310   0.001  1.00  0.00    -0.451 OA
BRANCH  12  14
ATOM     14  C   UNL     1       2.824  -0.059  -0.025  1.00  0.00     0.110 C 
BRANCH  14  15
ATOM     15  S   UNL     1       2.942  -0.640  -1.739  1.00  0.00    -0.154 SA
BRANCH  15  16
ATOM     16  C   UNL     1       3.346  -2.401  -1.578  1.00  0.00     0.047 C 
ATOM     17  C   UNL     1       3.354  -3.051  -2.963  1.00  0.00     0.014 C 
ATOM     18  C   UNL     1       4.727  -2.551  -0.936  1.00  0.00     0.014 C 
ATOM     19  C   UNL     1       3.695  -4.536  -2.828  1.00  0.00     0.001 C 
ATOM     20  C   UNL     1       5.067  -4.037  -0.801  1.00  0.00     0.001 C 
ATOM     21  C   UNL     1       5.075  -4.687  -2.186  1.00  0.00     0.000 C 
ENDBRANCH  15  16
ENDBRANCH  14  15
ENDBRANCH  12  14
ENDBRANCH   1   5
BRANCH   3  22
ATOM     22  C   UNL     1      -2.449   1.121   0.020  1.00  0.00     0.121 C 
BRANCH  22  23
ATOM     23  C   UNL     1      -3.626   2.099   0.031  1.00  0.00     0.057 C 
BRANCH  23  24
ATOM     24  C   UNL     1      -4.920   1.328   0.033  1.00  0.00    -0.046 A 
ATOM     25  C   UNL     1      -5.508   0.968   1.231  1.00  0.00     0.005 A 
ATOM     26  C   UNL     1      -5.523   0.986  -1.164  1.00  0.00     0.005 A 
ATOM     27  C   UNL     1      -6.696   0.260   1.232  1.00  0.00     0.022 A 
ATOM     28  C   UNL     1      -6.708   0.274  -1.162  1.00  0.00     0.022 A 
ATOM     29  C   UNL     1      -7.296  -0.087   0.036  1.00  0.00     0.082 A 
BRANCH  29  30
ATOM     30  S   UNL     1      -8.809  -0.989   0.038  1.00  0.00     0.238 S 
ATOM     31  O   UNL     1      -8.882  -1.663  -1.211  1.00  0.00    -0.207 OA
ATOM     32  O   UNL     1      -8.869  -1.678   1.280  1.00  0.00    -0.207 OA
BRANCH  30  33
ATOM     33  N   UNL     1     -10.040   0.118   0.051  1.00  0.00    -0.225 NA
ATOM     34  H   UNL     1     -11.019  -0.200   0.059  1.00  0.00     0.137 HD
ATOM     35  H   UNL     1      -9.826   1.126   0.052  1.00  0.00     0.137 HD
ENDBRANCH  30  33
ENDBRANCH  29  30
ENDBRANCH  23  24
ENDBRANCH  22  23
ENDBRANCH   3  22
TORSDOF 9
