REMARK SMILES Nn1c(SCC(=O)N2c3ccccc3Sc3ccc(Cl)cc32)nnc1-c1n[nH]c2c1CCC2
REMARK SMILES IDX 5 1 6 2 7 3 8 4 11 5 10 6 12 7 9 8 13 9 14 10 15 11 22 12
REMARK SMILES IDX 16 13 21 14 17 15 19 16 18 17 20 18 4 19 3 20 2 21 23 22
REMARK SMILES IDX 25 23 24 24 1 25 26 28 27 29 30 30 28 31 31 32 29 33 32 35
REMARK SMILES IDX 33 36
REMARK H PARENT 1 26 1 27 28 34
REMARK Flexibility Score: inf
ROOT
ATOM      1  C   UNL     1      -3.637   5.984   0.491  1.00  0.00     0.179 C 
ENDROOT
BRANCH   1   2
ATOM      2  C   UNL     1      -2.405   5.118   0.543  1.00  0.00     0.242 C 
ATOM      3  O   UNL     1      -1.589   5.277   1.427  1.00  0.00    -0.273 OA
BRANCH   2   4
ATOM      4  N   UNL     1      -2.209   4.168  -0.393  1.00  0.00    -0.278 N 
ATOM      5  C   UNL     1      -5.612   3.995  -1.748  1.00  0.00     0.002 A 
ATOM      6  C   UNL     1      -4.552   4.232  -0.894  1.00  0.00     0.028 A 
ATOM      7  C   UNL     1      -5.391   3.435  -2.992  1.00  0.00     0.001 A 
ATOM      8  C   UNL     1      -3.255   3.909  -1.277  1.00  0.00     0.063 A 
ATOM      9  C   UNL     1      -4.106   3.108  -3.383  1.00  0.00     0.017 A 
ATOM     10  C   UNL     1      -3.037   3.337  -2.527  1.00  0.00     0.036 A 
ATOM     11  S   UNL     1      -1.408   2.910  -3.042  1.00  0.00    -0.086 SA
ATOM     12  C   UNL     1      -0.975   3.519  -0.403  1.00  0.00     0.064 A 
ATOM     13  C   UNL     1      -0.478   2.900  -1.546  1.00  0.00     0.037 A 
ATOM     14  C   UNL     1      -0.221   3.493   0.766  1.00  0.00     0.048 A 
ATOM     15  C   UNL     1       0.759   2.269  -1.515  1.00  0.00     0.019 A 
ATOM     16  C   UNL     1       1.008   2.862   0.791  1.00  0.00     0.043 A 
ATOM     17  C   UNL     1       1.500   2.251  -0.348  1.00  0.00     0.022 A 
ATOM     18  Cl  UNL     1       1.938   2.837   2.256  1.00  0.00    -0.084 Cl
ENDBRANCH   2   4
ENDBRANCH   1   2
BRANCH   1  19
ATOM     19  S   UNL     1      -3.232   7.647   1.077  1.00  0.00    -0.074 SA
BRANCH  19  20
ATOM     20  C   UNL     1      -4.806   8.421   0.914  1.00  0.00     0.210 A 
ATOM     21  N   UNL     1      -5.108   9.717   1.224  1.00  0.00    -0.216 N 
ATOM     22  N   UNL     1      -5.910   7.859   0.477  1.00  0.00    -0.121 NA
ATOM     23  C   UNL     1      -6.444   9.867   0.933  1.00  0.00     0.204 A 
ATOM     24  N   UNL     1      -6.873   8.709   0.488  1.00  0.00    -0.125 NA
BRANCH  21  25
ATOM     25  N   UNL     1      -4.259  10.667   1.718  1.00  0.00    -0.335 N 
ATOM     26  H   UNL     1      -3.291  10.349   1.865  1.00  0.00     0.178 HD
ATOM     27  H   UNL     1      -4.546  11.632   1.933  1.00  0.00     0.178 HD
ENDBRANCH  21  25
BRANCH  23  28
ATOM     28  C   UNL     1      -7.246  11.099   1.095  1.00  0.00     0.135 A 
ATOM     29  N   UNL     1      -6.808  12.255   1.548  1.00  0.00    -0.172 NA
ATOM     30  C   UNL     1      -8.620  11.242   0.797  1.00  0.00     0.004 A 
ATOM     31  N   UNL     1      -7.878  13.158   1.542  1.00  0.00    -0.282 N 
ATOM     32  C   UNL     1      -9.812  10.467   0.275  1.00  0.00     0.040 C 
ATOM     33  C   UNL     1      -8.974  12.511   1.081  1.00  0.00     0.039 A 
ATOM     34  H   UNL     1      -7.838  14.144   1.837  1.00  0.00     0.190 HD
ATOM     35  C   UNL     1     -10.841  11.545  -0.130  1.00  0.00     0.011 C 
ATOM     36  C   UNL     1     -10.442  12.727   0.781  1.00  0.00     0.056 C 
ENDBRANCH  23  28
ENDBRANCH  19  20
ENDBRANCH   1  19
TORSDOF 6
