REMARK SMILES O[C@@]12C[C@H]3C[C@@H](C1)C[C@]([NH2+]Cc1cc(Br)ccc1OCc1ccc(F)cc1)(C3)C2
REMARK SMILES IDX 18 1 17 2 16 3 14 4 13 5 12 6 15 7 19 8 20 9 21 10 22 11
REMARK SMILES IDX 23 12 27 13 24 14 26 15 25 16 11 17 10 18 9 21 8 22 29 23
REMARK SMILES IDX 28 24 6 25 2 26 4 27 5 28 7 29 3 30 1 31
REMARK H PARENT 10 19 10 20 1 32
REMARK Flexibility Score: inf
ROOT
ATOM      1  C   UNL     1       0.297   4.199  -1.550  1.00  0.00     0.128 A 
ATOM      2  C   UNL     1       0.294   5.586  -1.516  1.00  0.00     0.048 A 
ATOM      3  C   UNL     1      -0.795   6.261  -1.000  1.00  0.00     0.019 A 
ATOM      4  C   UNL     1      -1.885   5.555  -0.522  1.00  0.00     0.018 A 
ATOM      5  C   UNL     1      -1.887   4.172  -0.561  1.00  0.00     0.029 A 
ATOM      6  C   UNL     1      -0.799   3.493  -1.076  1.00  0.00     0.049 A 
ATOM      7  Br  UNL     1      -3.374   6.482   0.184  1.00  0.00    -0.051 Br
ENDROOT
BRANCH   1   8
ATOM      8  O   UNL     1       1.370   3.533  -2.051  1.00  0.00    -0.488 OA
BRANCH   8   9
ATOM      9  C   UNL     1       2.463   4.324  -2.521  1.00  0.00     0.265 C 
BRANCH   9  10
ATOM     10  C   UNL     1       3.553   3.419  -3.037  1.00  0.00    -0.011 A 
ATOM     11  C   UNL     1       4.547   2.979  -2.183  1.00  0.00     0.010 A 
ATOM     12  C   UNL     1       5.544   2.146  -2.653  1.00  0.00     0.039 A 
ATOM     13  C   UNL     1       3.561   3.035  -4.365  1.00  0.00     0.010 A 
ATOM     14  C   UNL     1       5.553   1.760  -3.983  1.00  0.00     0.123 A 
ATOM     15  C   UNL     1       4.560   2.206  -4.839  1.00  0.00     0.039 A 
ATOM     16  F   UNL     1       6.530   0.950  -4.445  1.00  0.00    -0.207 F 
ENDBRANCH   9  10
ENDBRANCH   8   9
ENDBRANCH   1   8
BRANCH   6  17
ATOM     17  C   UNL     1      -0.802   1.987  -1.117  1.00  0.00     0.301 C 
BRANCH  17  18
ATOM     18  N   UNL     1      -0.013   1.471   0.017  1.00  0.00    -0.337 N 
ATOM     19  H   UNL     1       0.953   1.822  -0.050  1.00  0.00     0.347 HD
ATOM     20  H   UNL     1      -0.429   1.798   0.901  1.00  0.00     0.347 HD
BRANCH  18  21
ATOM     21  C   UNL     1       0.002  -0.004   0.002  1.00  0.00     0.100 C 
ATOM     22  C   UNL     1      -1.429  -0.534   0.112  1.00  0.00     0.072 C 
ATOM     23  C   UNL     1       0.826  -0.509   1.188  1.00  0.00     0.103 C 
ATOM     24  C   UNL     1       0.630  -0.498  -1.303  1.00  0.00     0.072 C 
ATOM     25  C   UNL     1      -1.408  -2.064   0.104  1.00  0.00    -0.002 C 
ATOM     26  C   UNL     1       0.847  -2.039   1.180  1.00  0.00     0.071 C 
ATOM     27  C   UNL     1       0.651  -2.028  -1.311  1.00  0.00    -0.002 C 
ATOM     28  C   UNL     1      -0.780  -2.558  -1.201  1.00  0.00     0.008 C 
ATOM     29  C   UNL     1      -0.584  -2.569   1.290  1.00  0.00     0.039 C 
ATOM     30  C   UNL     1       1.475  -2.534  -0.125  1.00  0.00     0.039 C 
BRANCH  26  31
ATOM     31  O   UNL     1       1.616  -2.511   2.287  1.00  0.00    -0.390 OA
ATOM     32  H   UNL     1       1.630  -3.501   2.283  1.00  0.00     0.211 HD
ENDBRANCH  26  31
ENDBRANCH  18  21
ENDBRANCH  17  18
ENDBRANCH   6  17
TORSDOF 7
