REMARK SMILES CCCOc1c(OC)cccc1[C@H]1Nc2ccccc2NC2=C1C(=O)C[C@@H](c1ccc(OCC(C)C)cc1)C2
REMARK SMILES IDX 20 1 19 2 18 3 17 4 16 5 15 6 14 7 13 9 12 11 5 12 6 13 9 14
REMARK SMILES IDX 11 15 10 16 4 17 3 18 2 19 1 20 7 21 8 22 21 23 22 25 23 26
REMARK SMILES IDX 39 27 24 28 27 30 26 31 25 32 28 33 38 34 29 35 37 36 30 37
REMARK SMILES IDX 31 38 32 39 33 40 34 41 35 42 36 43
REMARK H PARENT 14 8 21 24
REMARK Flexibility Score: 80.00
ROOT
ATOM      1  C   UNL     1       0.364  -3.594   1.163  1.00  0.00     0.062 A 
ATOM      2  C   UNL     1       1.412  -4.213   1.820  1.00  0.00     0.028 A 
ATOM      3  C   UNL     1       2.631  -4.345   1.177  1.00  0.00     0.002 A 
ATOM      4  C   UNL     1       2.797  -3.861  -0.107  1.00  0.00     0.002 A 
ATOM      5  C   UNL     1       1.756  -3.220  -0.756  1.00  0.00     0.028 A 
ATOM      6  C   UNL     1       0.539  -3.069  -0.108  1.00  0.00     0.059 A 
ENDROOT
BRANCH   6   7
ATOM      7  N   UNL     1      -0.518  -2.387  -0.704  1.00  0.00    -0.372 N 
ATOM      8  H   UNL     1      -0.961  -2.775  -1.550  1.00  0.00     0.161 HD
BRANCH   7   9
ATOM      9  C   UNL     1      -1.004  -1.141  -0.152  1.00  0.00     0.149 CG0
ATOM     10  G   UNL     1      -1.611  -1.267   1.226  1.00  0.00     0.000 G0
BRANCH   9  11
ATOM     11  C   UNL     1       0.145  -0.169  -0.081  1.00  0.00     0.025 A 
ATOM     12  C   UNL     1       0.583   0.471  -1.229  1.00  0.00     0.166 A 
ATOM     13  C   UNL     1       1.644   1.368  -1.160  1.00  0.00     0.161 A 
ATOM     14  C   UNL     1       2.259   1.617   0.057  1.00  0.00     0.050 A 
ATOM     15  C   UNL     1       0.762   0.084   1.130  1.00  0.00     0.010 A 
ATOM     16  C   UNL     1       1.817   0.975   1.198  1.00  0.00     0.004 A 
BRANCH  12  17
ATOM     17  O   UNL     1      -0.019   0.218  -2.422  1.00  0.00    -0.489 OA
BRANCH  17  18
ATOM     18  C   UNL     1      -1.050   1.119  -2.832  1.00  0.00     0.229 C 
BRANCH  18  19
ATOM     19  C   UNL     1      -1.693   0.605  -4.122  1.00  0.00     0.038 C 
ATOM     20  C   UNL     1      -2.872   1.506  -4.498  1.00  0.00     0.007 C 
ENDBRANCH  18  19
ENDBRANCH  17  18
ENDBRANCH  12  17
BRANCH  13  21
ATOM     21  O   UNL     1       2.078   1.998  -2.284  1.00  0.00    -0.493 OA
ATOM     22  C   UNL     1       3.172   2.906  -2.138  1.00  0.00     0.278 C 
ENDBRANCH  13  21
ENDBRANCH   9  11
ENDBRANCH   7   9
ENDBRANCH   6   7
BRANCH   1  23
ATOM     23  N   UNL     1      -0.911  -3.501   1.714  1.00  0.00    -0.357 N 
ATOM     24  H   UNL     1      -1.415  -4.380   1.898  1.00  0.00     0.166 HD
BRANCH  23  25
ATOM     25  C   UNL     1      -1.540  -2.339   2.027  1.00  0.00     0.025 C 
ATOM     26  C   UNL     1      -1.611  -1.267   1.226  1.00  0.00     0.041 CG0
ATOM     27  C   UNL     1      -2.206  -2.329   3.393  1.00  0.00     0.063 C 
ATOM     28  C   UNL     1      -2.308  -0.105   1.646  1.00  0.00     0.163 C 
ATOM     29  G   UNL     1      -1.004  -1.141  -0.152  1.00  0.00     0.000 G0
ATOM     30  C   UNL     1      -2.200  -0.914   3.968  1.00  0.00     0.033 C 
ATOM     31  C   UNL     1      -2.963  -0.010   2.992  1.00  0.00     0.089 C 
ATOM     32  O   UNL     1      -2.377   0.845   0.892  1.00  0.00    -0.294 OA
BRANCH  30  33
ATOM     33  C   UNL     1      -2.882  -0.906   5.312  1.00  0.00    -0.044 A 
ATOM     34  C   UNL     1      -2.185  -0.505   6.437  1.00  0.00     0.008 A 
ATOM     35  C   UNL     1      -4.205  -1.293   5.416  1.00  0.00     0.008 A 
ATOM     36  C   UNL     1      -2.808  -0.497   7.670  1.00  0.00     0.047 A 
ATOM     37  C   UNL     1      -4.831  -1.292   6.648  1.00  0.00     0.047 A 
ATOM     38  C   UNL     1      -4.134  -0.891   7.778  1.00  0.00     0.119 A 
BRANCH  38  39
ATOM     39  O   UNL     1      -4.749  -0.884   8.990  1.00  0.00    -0.493 OA
BRANCH  39  40
ATOM     40  C   UNL     1      -6.115  -1.302   9.027  1.00  0.00     0.232 C 
BRANCH  40  41
ATOM     41  C   UNL     1      -6.633  -1.228  10.465  1.00  0.00     0.020 C 
ATOM     42  C   UNL     1      -8.127  -1.556  10.486  1.00  0.00     0.011 C 
ATOM     43  C   UNL     1      -5.878  -2.238  11.331  1.00  0.00     0.011 C 
ENDBRANCH  40  41
ENDBRANCH  39  40
ENDBRANCH  38  39
ENDBRANCH  30  33
ENDBRANCH  23  25
ENDBRANCH   1  23
TORSDOF 9
