REMARK SMILES CC(C)C(=O)Nc1cc(-c2cccs2)nn1-c1nc2c(c(=O)[nH]1)CCC2
REMARK SMILES IDX 7 1 8 2 9 3 15 4 16 5 6 6 4 7 5 8 2 10 1 11 3 12 17 13 18 14
REMARK SMILES IDX 23 15 19 16 21 17 20 19 26 20 22 21 24 22 25 23 10 24 14 25
REMARK SMILES IDX 11 26 13 27 12 28
REMARK H PARENT 6 9 23 18
REMARK Flexibility Score: inf
ROOT
ATOM      1  C   UNL     1       2.297   6.891   0.017  1.00  0.00     0.140 A 
ATOM      2  C   UNL     1       2.267   5.534   0.015  1.00  0.00     0.079 A 
ATOM      3  C   UNL     1       0.915   5.132   0.020  1.00  0.00     0.105 A 
ATOM      4  N   UNL     1       0.164   6.215   0.034  1.00  0.00    -0.162 NA
ATOM      5  N   UNL     1       1.005   7.334   0.032  1.00  0.00    -0.183 N 
ENDROOT
BRANCH   1   6
ATOM      6  N   UNL     1       3.440   7.688   0.012  1.00  0.00    -0.310 N 
ATOM      7  C   UNL     1       4.660   7.116  -0.003  1.00  0.00     0.228 C 
ATOM      8  O   UNL     1       4.764   5.908  -0.012  1.00  0.00    -0.274 OA
ATOM      9  H   UNL     1       3.352   8.714   0.019  1.00  0.00     0.171 HD
BRANCH   7  10
ATOM     10  C   UNL     1       5.896   7.978  -0.009  1.00  0.00     0.072 C 
ATOM     11  C   UNL     1       5.914   8.854   1.246  1.00  0.00     0.018 C 
ATOM     12  C   UNL     1       7.140   7.087  -0.026  1.00  0.00     0.018 C 
ENDBRANCH   7  10
ENDBRANCH   1   6
BRANCH   5  13
ATOM     13  C   UNL     1       0.600   8.655   0.043  1.00  0.00     0.233 A 
ATOM     14  N   UNL     1       1.505   9.607   0.040  1.00  0.00    -0.217 NA
ATOM     15  N   UNL     1      -0.728   8.945   0.052  1.00  0.00    -0.291 N 
ATOM     16  C   UNL     1       1.163  10.898   0.050  1.00  0.00     0.053 A 
ATOM     17  C   UNL     1      -1.130  10.233   0.067  1.00  0.00     0.255 A 
ATOM     18  H   UNL     1      -1.424   8.185   0.048  1.00  0.00     0.173 HD
ATOM     19  C   UNL     1      -0.153  11.248   0.063  1.00  0.00     0.039 A 
ATOM     20  C   UNL     1       2.028  12.141   0.049  1.00  0.00     0.057 C 
ATOM     21  O   UNL     1      -2.317  10.514   0.079  1.00  0.00    -0.269 OA
ATOM     22  C   UNL     1      -0.294  12.754   0.073  1.00  0.00     0.044 C 
ATOM     23  C   UNL     1       1.085  13.288  -0.373  1.00  0.00     0.011 C 
ENDBRANCH   5  13
BRANCH   3  24
ATOM     24  C   UNL     1       0.425   3.737   0.017  1.00  0.00     0.055 A 
ATOM     25  S   UNL     1       1.360   2.217   0.001  1.00  0.00    -0.142 S 
ATOM     26  C   UNL     1      -0.864   3.276   0.027  1.00  0.00     0.022 A 
ATOM     27  C   UNL     1      -0.013   1.076   0.008  1.00  0.00     0.065 A 
ATOM     28  C   UNL     1      -1.080   1.915   0.017  1.00  0.00     0.012 A 
ENDBRANCH   3  24
TORSDOF 4
