REMARK SMILES Cc1cccc(C)c1NC(=O)C1(N(CCc2c(C)[nH]c3ccccc23)C(=O)c2ccccc2)CCCCC1
REMARK SMILES IDX 13 1 12 2 38 3 34 4 37 5 35 6 36 7 10 8 9 9 11 11 8 12 1 13
REMARK SMILES IDX 2 14 3 15 6 16 4 17 5 18 7 19 14 20 15 21 16 22 25 23 17 24
REMARK SMILES IDX 20 25 24 26 19 27 18 28 21 29 23 30 22 32 26 33 27 34 28 35
REMARK SMILES IDX 33 36 29 37 32 38 30 39 31 40
REMARK H PARENT 9 10 19 31
REMARK Flexibility Score: inf
ROOT
ATOM      1  N   UNL     1      -0.720   1.249   3.132  1.00  0.00    -0.324 N 
ENDROOT
BRANCH   1   2
ATOM      2  C   UNL     1       0.695   1.625   3.179  1.00  0.00     0.122 C 
ATOM      3  C   UNL     1       1.164   1.667   4.635  1.00  0.00     0.039 C 
ATOM      4  C   UNL     1       0.878   3.005   2.544  1.00  0.00     0.039 C 
ATOM      5  C   UNL     1       0.337   2.697   5.407  1.00  0.00     0.003 C 
ATOM      6  C   UNL     1       0.051   4.035   3.316  1.00  0.00     0.003 C 
ATOM      7  C   UNL     1       0.520   4.077   4.772  1.00  0.00     0.000 C 
BRANCH   2   8
ATOM      8  C   UNL     1       1.510   0.610   2.419  1.00  0.00     0.250 C 
ATOM      9  N   UNL     1       1.077  -0.662   2.317  1.00  0.00    -0.324 N 
ATOM     10  H   UNL     1       0.108  -0.898   2.573  1.00  0.00     0.170 HD
ATOM     11  O   UNL     1       2.555   0.939   1.898  1.00  0.00    -0.272 OA
BRANCH   9  12
ATOM     12  C   UNL     1       1.945  -1.662   1.864  1.00  0.00     0.047 A 
ATOM     13  C   UNL     1       1.518  -2.919   3.993  1.00  0.00     0.046 C 
ATOM     14  C   UNL     1       2.188  -2.781   2.651  1.00  0.00    -0.027 A 
ATOM     15  C   UNL     1       3.041  -3.768   2.198  1.00  0.00     0.005 A 
ATOM     16  C   UNL     1       2.568  -1.536   0.630  1.00  0.00    -0.027 A 
ATOM     17  C   UNL     1       3.660  -3.640   0.969  1.00  0.00     0.001 A 
ATOM     18  C   UNL     1       3.425  -2.525   0.186  1.00  0.00     0.005 A 
ATOM     19  C   UNL     1       2.311  -0.321  -0.224  1.00  0.00     0.046 C 
ENDBRANCH   9  12
ENDBRANCH   2   8
ENDBRANCH   1   2
BRANCH   1  20
ATOM     20  C   UNL     1      -1.467   1.051   4.377  1.00  0.00     0.126 C 
BRANCH  20  21
ATOM     21  C   UNL     1      -2.200  -0.291   4.323  1.00  0.00     0.059 C 
BRANCH  21  22
ATOM     22  C   UNL     1      -3.065  -0.440   5.548  1.00  0.00    -0.018 A 
ATOM     23  C   UNL     1      -4.488  -0.108   5.656  1.00  0.00     0.003 A 
ATOM     24  C   UNL     1      -2.679  -0.907   6.746  1.00  0.00     0.016 A 
ATOM     25  C   UNL     1      -4.859  -0.413   6.979  1.00  0.00     0.046 A 
ATOM     26  C   UNL     1      -5.435   0.404   4.768  1.00  0.00     0.010 A 
ATOM     27  N   UNL     1      -3.736  -0.893   7.615  1.00  0.00    -0.358 N 
ATOM     28  C   UNL     1      -1.287  -1.374   7.085  1.00  0.00     0.064 C 
ATOM     29  C   UNL     1      -6.172  -0.200   7.384  1.00  0.00     0.026 A 
ATOM     30  C   UNL     1      -6.720   0.605   5.187  1.00  0.00     0.001 A 
ATOM     31  H   UNL     1      -3.698  -1.197   8.598  1.00  0.00     0.166 HD
ATOM     32  C   UNL     1      -7.091   0.306   6.491  1.00  0.00     0.002 A 
ENDBRANCH  21  22
ENDBRANCH  20  21
ENDBRANCH   1  20
BRANCH   1  33
ATOM     33  C   UNL     1      -1.335   1.086   1.944  1.00  0.00     0.254 C 
ATOM     34  O   UNL     1      -2.529   0.863   1.903  1.00  0.00    -0.269 OA
BRANCH  33  35
ATOM     35  C   UNL     1      -0.556   1.178   0.690  1.00  0.00     0.040 A 
ATOM     36  C   UNL     1      -1.138   0.810  -0.524  1.00  0.00     0.014 A 
ATOM     37  C   UNL     1       0.761   1.638   0.715  1.00  0.00     0.014 A 
ATOM     38  C   UNL     1      -0.406   0.899  -1.691  1.00  0.00     0.001 A 
ATOM     39  C   UNL     1       1.483   1.717  -0.458  1.00  0.00     0.001 A 
ATOM     40  C   UNL     1       0.901   1.351  -1.658  1.00  0.00     0.000 A 
ENDBRANCH  33  35
ENDBRANCH   1  33
TORSDOF 8
