REMARK SMILES Cc1cc(SC2C(=O)C[C@](C)(CCc3ccc(O)cc3)OC2=O)c(C(C)(C)C)cc1CO
REMARK SMILES IDX 6 1 7 2 9 3 10 4 21 5 22 6 23 7 11 8 8 9 5 10 4 11 1 12 2 13
REMARK SMILES IDX 30 14 3 15 29 16 24 17 31 18 32 19 25 21 26 22 27 23 28 24
REMARK SMILES IDX 12 25 13 26 14 27 20 28 15 29 19 30 16 31 17 32 18 33
REMARK H PARENT 32 20 18 34
REMARK Flexibility Score: inf
ROOT
ATOM      1  C   UNL     1       4.013   2.548   0.040  1.00  0.00     0.228 C 
ATOM      2  C   UNL     1       3.727   3.859   0.155  1.00  0.00     0.161 C 
ATOM      3  C   UNL     1       4.816   4.896   0.196  1.00  0.00     0.126 C 
ATOM      4  C   UNL     1       6.143   4.256   0.609  1.00  0.00     0.117 C 
ATOM      5  O   UNL     1       6.360   3.081  -0.185  1.00  0.00    -0.458 OA
ATOM      6  C   UNL     1       5.415   2.117  -0.027  1.00  0.00     0.327 C 
ATOM      7  O   UNL     1       5.718   0.941   0.051  1.00  0.00    -0.250 OA
ATOM      8  C   UNL     1       6.087   3.873   2.090  1.00  0.00     0.057 C 
ATOM      9  O   UNL     1       2.436   4.251   0.234  1.00  0.00    -0.298 OA
ENDROOT
BRANCH   1  10
ATOM     10  S   UNL     1       2.715   1.359  -0.021  1.00  0.00    -0.103 SA
BRANCH  10  11
ATOM     11  C   UNL     1       2.823   0.693  -1.649  1.00  0.00     0.013 A 
ATOM     12  C   UNL     1       4.760   1.305  -4.838  1.00  0.00     0.045 C 
ATOM     13  C   UNL     1       3.795   0.714  -3.842  1.00  0.00    -0.044 A 
ATOM     14  C   UNL     1       2.993  -0.352  -4.206  1.00  0.00    -0.019 A 
ATOM     15  C   UNL     1       3.713   1.238  -2.567  1.00  0.00     0.019 A 
ATOM     16  C   UNL     1       2.109  -0.900  -3.294  1.00  0.00     0.011 A 
ATOM     17  C   UNL     1       2.018  -0.378  -2.019  1.00  0.00    -0.029 A 
BRANCH  14  18
ATOM     18  C   UNL     1       3.085  -0.921  -5.598  1.00  0.00     0.191 C 
BRANCH  18  19
ATOM     19  O   UNL     1       2.165  -2.006  -5.731  1.00  0.00    -0.392 OA
ATOM     20  H   UNL     1       1.244  -1.681  -5.569  1.00  0.00     0.211 HD
ENDBRANCH  18  19
ENDBRANCH  14  18
BRANCH  17  21
ATOM     21  C   UNL     1       1.052  -0.973  -1.027  1.00  0.00    -0.012 C 
ATOM     22  C   UNL     1       0.295  -2.129  -1.684  1.00  0.00     0.016 C 
ATOM     23  C   UNL     1       1.823  -1.493   0.188  1.00  0.00     0.016 C 
ATOM     24  C   UNL     1       0.056   0.099  -0.579  1.00  0.00     0.016 C 
ENDBRANCH  17  21
ENDBRANCH  10  11
ENDBRANCH   1  10
BRANCH   4  25
ATOM     25  C   UNL     1       7.284   5.248   0.379  1.00  0.00     0.054 C 
BRANCH  25  26
ATOM     26  C   UNL     1       8.610   4.606   0.793  1.00  0.00     0.039 C 
BRANCH  26  27
ATOM     27  C   UNL     1       9.734   5.584   0.567  1.00  0.00    -0.048 A 
ATOM     28  C   UNL     1      10.106   6.454   1.575  1.00  0.00     0.007 A 
ATOM     29  C   UNL     1      10.395   5.605  -0.647  1.00  0.00     0.007 A 
ATOM     30  C   UNL     1      11.136   7.351   1.370  1.00  0.00     0.046 A 
ATOM     31  C   UNL     1      11.423   6.504  -0.859  1.00  0.00     0.046 A 
ATOM     32  C   UNL     1      11.798   7.378   0.151  1.00  0.00     0.115 A 
BRANCH  32  33
ATOM     33  O   UNL     1      12.811   8.260  -0.054  1.00  0.00    -0.508 OA
ATOM     34  H   UNL     1      12.543   8.775  -0.855  1.00  0.00     0.293 HD
ENDBRANCH  32  33
ENDBRANCH  26  27
ENDBRANCH  25  26
ENDBRANCH   4  25
TORSDOF 9
