REMARK SMILES Nn1c(N/N=C/c2ccccc2OCc2ccccc2Cl)nnc1SCc1ccccc1Cl
REMARK SMILES IDX 6 1 5 2 7 3 12 4 11 5 8 6 10 7 9 8 13 9 14 10 15 11 17 12
REMARK SMILES IDX 16 13 18 14 19 15 20 16 21 17 4 18 3 20 2 21 22 22 24 23
REMARK SMILES IDX 23 24 1 25 25 28 26 29 27 30 32 31 28 32 31 33 33 34 29 35
REMARK SMILES IDX 30 36
REMARK H PARENT 4 19 1 26 1 27
REMARK Flexibility Score: inf
ROOT
ATOM      1  C   UNL     1      -8.144  -4.994  -2.672  1.00  0.00     0.145 C 
ATOM      2  N   UNL     1      -7.244  -4.316  -2.027  1.00  0.00    -0.180 NA
ENDROOT
BRANCH   1   3
ATOM      3  C   UNL     1      -9.273  -5.600  -1.943  1.00  0.00     0.037 A 
ATOM      4  C   UNL     1     -10.304  -6.239  -2.645  1.00  0.00     0.128 A 
ATOM      5  C   UNL     1     -11.360  -6.805  -1.951  1.00  0.00     0.047 A 
ATOM      6  C   UNL     1      -9.318  -5.545  -0.548  1.00  0.00     0.013 A 
ATOM      7  C   UNL     1     -11.396  -6.739  -0.570  1.00  0.00     0.004 A 
ATOM      8  C   UNL     1     -10.380  -6.109   0.128  1.00  0.00     0.001 A 
BRANCH   4   9
ATOM      9  O   UNL     1     -10.268  -6.302  -4.002  1.00  0.00    -0.488 OA
BRANCH   9  10
ATOM     10  C   UNL     1     -11.405  -6.870  -4.655  1.00  0.00     0.267 C 
BRANCH  10  11
ATOM     11  C   UNL     1     -11.173  -6.885  -6.144  1.00  0.00     0.008 A 
ATOM     12  C   UNL     1      -9.735  -6.516  -8.023  1.00  0.00     0.001 A 
ATOM     13  C   UNL     1      -9.949  -6.498  -6.657  1.00  0.00     0.009 A 
ATOM     14  C   UNL     1     -10.748  -6.912  -8.877  1.00  0.00     0.002 A 
ATOM     15  C   UNL     1     -11.973  -7.294  -8.365  1.00  0.00     0.021 A 
ATOM     16  C   UNL     1     -12.187  -7.281  -6.998  1.00  0.00     0.047 A 
ATOM     17  Cl  UNL     1     -13.726  -7.760  -6.355  1.00  0.00    -0.084 Cl
ENDBRANCH  10  11
ENDBRANCH   9  10
ENDBRANCH   4   9
ENDBRANCH   1   3
BRANCH   2  18
ATOM     18  N   UNL     1      -6.231  -3.651  -2.731  1.00  0.00    -0.244 N 
ATOM     19  H   UNL     1      -6.243  -3.636  -3.760  1.00  0.00     0.193 HD
BRANCH  18  20
ATOM     20  C   UNL     1      -5.210  -3.015  -2.040  1.00  0.00     0.264 A 
ATOM     21  N   UNL     1      -4.116  -2.413  -2.597  1.00  0.00    -0.202 N 
ATOM     22  N   UNL     1      -5.127  -2.881  -0.738  1.00  0.00    -0.107 NA
ATOM     23  C   UNL     1      -3.350  -1.908  -1.585  1.00  0.00     0.211 A 
ATOM     24  N   UNL     1      -3.949  -2.179  -0.450  1.00  0.00    -0.119 NA
BRANCH  21  25
ATOM     25  N   UNL     1      -3.837  -2.332  -3.932  1.00  0.00    -0.334 N 
ATOM     26  H   UNL     1      -4.526  -2.771  -4.560  1.00  0.00     0.178 HD
ATOM     27  H   UNL     1      -2.997  -1.866  -4.303  1.00  0.00     0.178 HD
ENDBRANCH  21  25
BRANCH  23  28
ATOM     28  S   UNL     1      -1.829  -1.039  -1.772  1.00  0.00    -0.079 SA
BRANCH  28  29
ATOM     29  C   UNL     1      -1.338  -0.642  -0.071  1.00  0.00     0.115 C 
BRANCH  29  30
ATOM     30  C   UNL     1      -0.034   0.112  -0.087  1.00  0.00    -0.019 A 
ATOM     31  C   UNL     1      -0.035   1.494  -0.163  1.00  0.00     0.045 A 
ATOM     32  C   UNL     1       1.164  -0.576  -0.027  1.00  0.00     0.006 A 
ATOM     33  C   UNL     1       1.163   2.186  -0.179  1.00  0.00     0.021 A 
ATOM     34  Cl  UNL     1      -1.538   2.358  -0.246  1.00  0.00    -0.084 Cl
ATOM     35  C   UNL     1       2.360   0.116  -0.042  1.00  0.00     0.000 A 
ATOM     36  C   UNL     1       2.360   1.497  -0.118  1.00  0.00     0.002 A 
ENDBRANCH  29  30
ENDBRANCH  28  29
ENDBRANCH  23  28
ENDBRANCH  18  20
ENDBRANCH   2  18
TORSDOF 10
