REMARK SMILES C=C(NNC(=O)CSc1nnc(-c2ccc(C(C)(C)C)cc2)n1-c1ccc(OC)cc1)c1ccc(O)cc1
REMARK SMILES IDX 5 1 6 2 4 3 7 5 8 6 9 7 12 8 23 9 11 10 10 11 13 12 16 13
REMARK SMILES IDX 21 14 15 15 22 16 14 17 17 18 18 19 19 20 20 21 24 22 31 23
REMARK SMILES IDX 25 24 30 25 26 26 27 27 28 28 29 29 3 30 2 32 1 33 32 34
REMARK SMILES IDX 38 35 33 36 37 37 34 38 35 39 36 40
REMARK H PARENT 4 4 3 31 36 41
REMARK Flexibility Score: inf
ROOT
ATOM      1  C   UNL     1      -8.265  -1.318   0.587  1.00  0.00     0.248 C 
ATOM      2  O   UNL     1      -8.993  -0.358   0.451  1.00  0.00    -0.272 OA
ATOM      3  N   UNL     1      -8.792  -2.534   0.835  1.00  0.00    -0.269 N 
ATOM      4  H   UNL     1      -8.173  -3.349   0.950  1.00  0.00     0.191 HD
ENDROOT
BRANCH   1   5
ATOM      5  C   UNL     1      -6.771  -1.152   0.479  1.00  0.00     0.180 C 
BRANCH   5   6
ATOM      6  S   UNL     1      -6.380   0.583   0.144  1.00  0.00    -0.076 SA
BRANCH   6   7
ATOM      7  C   UNL     1      -4.622   0.491   0.069  1.00  0.00     0.196 A 
ATOM      8  C   UNL     1      -2.501   0.983  -0.132  1.00  0.00     0.169 A 
ATOM      9  N   UNL     1      -3.764   1.532  -0.159  1.00  0.00    -0.270 N 
ATOM     10  N   UNL     1      -2.643  -0.300   0.108  1.00  0.00    -0.129 NA
ATOM     11  N   UNL     1      -3.890  -0.589   0.226  1.00  0.00    -0.122 NA
BRANCH   8  12
ATOM     12  C   UNL     1      -1.225   1.704  -0.329  1.00  0.00     0.020 A 
ATOM     13  C   UNL     1       1.164   3.056  -0.693  1.00  0.00    -0.043 A 
ATOM     14  C   UNL     1       1.163   1.806  -0.100  1.00  0.00     0.005 A 
ATOM     15  C   UNL     1      -0.024   3.633  -1.107  1.00  0.00     0.005 A 
ATOM     16  C   UNL     1      -0.023   1.126   0.083  1.00  0.00     0.012 A 
ATOM     17  C   UNL     1      -1.217   2.963  -0.931  1.00  0.00     0.012 A 
BRANCH  13  18
ATOM     18  C   UNL     1       2.463   3.794  -0.889  1.00  0.00    -0.013 C 
ATOM     19  C   UNL     1       2.413   5.124  -0.135  1.00  0.00     0.016 C 
ATOM     20  C   UNL     1       3.617   2.945  -0.350  1.00  0.00     0.016 C 
ATOM     21  C   UNL     1       2.679   4.060  -2.380  1.00  0.00     0.016 C 
ENDBRANCH  13  18
ENDBRANCH   8  12
BRANCH   9  22
ATOM     22  C   UNL     1      -4.100   2.877  -0.377  1.00  0.00     0.050 A 
ATOM     23  C   UNL     1      -4.763   3.247  -1.539  1.00  0.00     0.030 A 
ATOM     24  C   UNL     1      -3.775   3.837   0.572  1.00  0.00     0.030 A 
ATOM     25  C   UNL     1      -5.095   4.571  -1.752  1.00  0.00     0.048 A 
ATOM     26  C   UNL     1      -4.101   5.160   0.355  1.00  0.00     0.048 A 
ATOM     27  C   UNL     1      -4.764   5.530  -0.807  1.00  0.00     0.119 A 
BRANCH  27  28
ATOM     28  O   UNL     1      -5.090   6.833  -1.018  1.00  0.00    -0.497 OA
ATOM     29  C   UNL     1      -4.720   7.767  -0.002  1.00  0.00     0.278 C 
ENDBRANCH  27  28
ENDBRANCH   9  22
ENDBRANCH   6   7
ENDBRANCH   5   6
ENDBRANCH   1   5
BRANCH   3  30
ATOM     30  N   UNL     1     -10.181  -2.688   0.935  1.00  0.00    -0.299 N 
ATOM     31  H   UNL     1     -10.799  -1.873   0.820  1.00  0.00     0.188 HD
BRANCH  30  32
ATOM     32  C   UNL     1     -10.726  -3.947   1.192  1.00  0.00     0.054 C 
ATOM     33  C   UNL     1      -9.925  -5.003   1.341  1.00  0.00     0.039 C 
BRANCH  32  34
ATOM     34  C   UNL     1     -12.194  -4.110   1.298  1.00  0.00    -0.001 A 
ATOM     35  C   UNL     1     -12.740  -5.367   1.554  1.00  0.00     0.014 A 
ATOM     36  C   UNL     1     -13.032  -3.006   1.147  1.00  0.00     0.014 A 
ATOM     37  C   UNL     1     -14.107  -5.516   1.653  1.00  0.00     0.047 A 
ATOM     38  C   UNL     1     -14.399  -3.162   1.241  1.00  0.00     0.047 A 
ATOM     39  C   UNL     1     -14.940  -4.415   1.496  1.00  0.00     0.115 A 
BRANCH  39  40
ATOM     40  O   UNL     1     -16.287  -4.565   1.593  1.00  0.00    -0.508 OA
ATOM     41  H   UNL     1     -16.645  -4.217   0.739  1.00  0.00     0.293 HD
ENDBRANCH  39  40
ENDBRANCH  32  34
ENDBRANCH  30  32
ENDBRANCH   3  30
TORSDOF 11
