REMARK SMILES CC(C)[C@@H](C(=O)NC1CC[NH+](Cc2ccccc2)CC1)N1C(=O)N2CCc3c([nH]c4ccccc34)[C@@]2(C)C1=O
REMARK SMILES IDX 8 1 9 2 10 3 19 4 20 5 11 6 7 8 5 9 6 10 4 12 2 13 1 14 3 15
REMARK SMILES IDX 21 16 22 17 38 18 24 19 23 20 39 21 36 22 25 23 28 24 37 25
REMARK SMILES IDX 26 26 29 27 27 28 30 29 35 31 31 32 34 33 32 34 33 35 12 36
REMARK SMILES IDX 13 37 18 38 14 39 17 40 15 41 16 42
REMARK H PARENT 11 7 7 11 29 30
REMARK Flexibility Score: inf
ROOT
ATOM      1  C   UNL     1      -0.344   1.879   1.218  1.00  0.00     0.093 C 
ATOM      2  C   UNL     1       0.637   1.864   0.042  1.00  0.00     0.086 C 
ATOM      3  C   UNL     1      -0.075   2.363  -1.218  1.00  0.00     0.264 C 
ATOM      4  C   UNL     1      -2.204   1.533  -0.413  1.00  0.00     0.264 C 
ATOM      5  C   UNL     1      -1.556   1.009   0.871  1.00  0.00     0.086 C 
ATOM      6  N   UNL     1      -1.216   1.470  -1.510  1.00  0.00    -0.331 N 
ATOM      7  H   UNL     1      -0.870   0.503  -1.592  1.00  0.00     0.348 HD
ENDROOT
BRANCH   1   8
ATOM      8  N   UNL     1       0.316   1.348   2.413  1.00  0.00    -0.351 N 
ATOM      9  C   UNL     1      -0.119   1.705   3.638  1.00  0.00     0.243 C 
ATOM     10  O   UNL     1      -0.989   2.542   3.752  1.00  0.00    -0.273 OA
ATOM     11  H   UNL     1       1.112   0.701   2.317  1.00  0.00     0.163 HD
BRANCH   9  12
ATOM     12  C   UNL     1       0.477   1.065   4.865  1.00  0.00     0.187 C 
BRANCH  12  13
ATOM     13  C   UNL     1      -0.103  -0.340   5.040  1.00  0.00     0.016 C 
ATOM     14  C   UNL     1       0.334  -1.222   3.868  1.00  0.00     0.010 C 
ATOM     15  C   UNL     1       0.407  -0.943   6.349  1.00  0.00     0.010 C 
ENDBRANCH  12  13
BRANCH  12  16
ATOM     16  N   UNL     1       0.157   1.875   6.043  1.00  0.00    -0.249 N 
ATOM     17  C   UNL     1      -1.092   2.146   6.456  1.00  0.00     0.328 C 
ATOM     18  C   UNL     1       1.081   2.438   6.851  1.00  0.00     0.263 C 
ATOM     19  N   UNL     1      -1.098   2.814   7.610  1.00  0.00    -0.304 N 
ATOM     20  O   UNL     1      -2.096   1.820   5.852  1.00  0.00    -0.248 OA
ATOM     21  O   UNL     1       2.286   2.321   6.781  1.00  0.00    -0.271 OA
ATOM     22  C   UNL     1       0.298   3.248   7.857  1.00  0.00     0.161 C 
ATOM     23  C   UNL     1      -2.178   3.049   8.569  1.00  0.00     0.128 C 
ATOM     24  C   UNL     1       0.608   2.817   9.271  1.00  0.00     0.055 A 
ATOM     25  C   UNL     1       0.479   4.753   7.655  1.00  0.00     0.053 C 
ATOM     26  C   UNL     1      -1.822   2.306   9.866  1.00  0.00     0.060 C 
ATOM     27  N   UNL     1       1.842   2.765   9.861  1.00  0.00    -0.356 N 
ATOM     28  C   UNL     1      -0.345   2.420  10.145  1.00  0.00    -0.015 A 
ATOM     29  C   UNL     1       1.717   2.341  11.152  1.00  0.00     0.046 A 
ATOM     30  H   UNL     1       2.730   3.009   9.400  1.00  0.00     0.166 HD
ATOM     31  C   UNL     1       0.339   2.108  11.388  1.00  0.00     0.003 A 
ATOM     32  C   UNL     1       2.655   2.128  12.161  1.00  0.00     0.026 A 
ATOM     33  C   UNL     1      -0.121   1.663  12.631  1.00  0.00     0.010 A 
ATOM     34  C   UNL     1       2.173   1.687  13.381  1.00  0.00     0.002 A 
ATOM     35  C   UNL     1       0.825   1.463  13.606  1.00  0.00     0.001 A 
ENDBRANCH  12  16
ENDBRANCH   9  12
ENDBRANCH   1   8
BRANCH   6  36
ATOM     36  C   UNL     1      -1.851   1.863  -2.785  1.00  0.00     0.299 C 
BRANCH  36  37
ATOM     37  C   UNL     1      -3.159   1.129  -2.932  1.00  0.00     0.006 A 
ATOM     38  C   UNL     1      -4.327   1.698  -2.462  1.00  0.00     0.009 A 
ATOM     39  C   UNL     1      -3.190  -0.111  -3.542  1.00  0.00     0.009 A 
ATOM     40  C   UNL     1      -5.527   1.025  -2.598  1.00  0.00     0.001 A 
ATOM     41  C   UNL     1      -4.389  -0.787  -3.672  1.00  0.00     0.001 A 
ATOM     42  C   UNL     1      -5.558  -0.217  -3.202  1.00  0.00     0.000 A 
ENDBRANCH  36  37
ENDBRANCH   6  36
TORSDOF 6
