REMARK SMILES CCCCCOC(=O)c1c(N)n(-c2ccc(Br)cc2)c2nc3ccccc3nc12
REMARK SMILES IDX 5 1 4 2 3 3 2 4 1 5 6 6 7 7 8 8 9 9 10 10 29 11 12 12 28 13
REMARK SMILES IDX 20 14 27 15 21 16 22 17 26 18 23 19 25 20 24 21 11 22 13 25
REMARK SMILES IDX 19 26 14 27 18 28 15 29 16 30 17 31
REMARK H PARENT 11 23 11 24
REMARK Flexibility Score: inf
ROOT
ATOM      1  C   UNL     1      -0.580  -4.850   1.077  1.00  0.00     0.233 C 
ENDROOT
BRANCH   1   2
ATOM      2  C   UNL     1      -0.922  -5.321   2.492  1.00  0.00     0.042 C 
BRANCH   2   3
ATOM      3  C   UNL     1      -1.855  -6.532   2.414  1.00  0.00     0.003 C 
BRANCH   3   4
ATOM      4  C   UNL     1      -2.198  -7.002   3.829  1.00  0.00    -0.003 C 
ATOM      5  C   UNL     1      -3.130  -8.213   3.752  1.00  0.00     0.004 C 
ENDBRANCH   3   4
ENDBRANCH   2   3
ENDBRANCH   1   2
BRANCH   1   6
ATOM      6  O   UNL     1       0.291  -3.719   1.149  1.00  0.00    -0.462 OA
BRANCH   6   7
ATOM      7  C   UNL     1       0.691  -3.179  -0.021  1.00  0.00     0.344 C 
ATOM      8  O   UNL     1       0.310  -3.655  -1.074  1.00  0.00    -0.246 OA
BRANCH   7   9
ATOM      9  C   UNL     1       1.555  -2.056  -0.023  1.00  0.00     0.130 A 
ATOM     10  C   UNL     1       2.946  -2.076  -0.036  1.00  0.00     0.126 A 
ATOM     11  C   UNL     1       1.157  -0.638  -0.012  1.00  0.00     0.125 A 
ATOM     12  N   UNL     1       3.440  -0.806  -0.034  1.00  0.00    -0.278 N 
ATOM     13  N   UNL     1       0.002  -0.004   0.002  1.00  0.00    -0.242 NA
ATOM     14  C   UNL     1       2.413   0.118  -0.019  1.00  0.00     0.166 A 
ATOM     15  C   UNL     1      -0.016   1.334   0.009  1.00  0.00     0.090 A 
ATOM     16  N   UNL     1       2.376   1.433  -0.012  1.00  0.00    -0.226 NA
ATOM     17  C   UNL     1       1.197   2.067   0.002  1.00  0.00     0.091 A 
ATOM     18  C   UNL     1      -1.240   2.029   0.019  1.00  0.00     0.030 A 
ATOM     19  C   UNL     1       1.149   3.474   0.009  1.00  0.00     0.031 A 
ATOM     20  C   UNL     1      -1.246   3.389   0.031  1.00  0.00     0.002 A 
ATOM     21  C   UNL     1      -0.053   4.110   0.024  1.00  0.00     0.002 A 
BRANCH  10  22
ATOM     22  N   UNL     1       3.712  -3.212  -0.049  1.00  0.00    -0.384 N 
ATOM     23  H   UNL     1       3.204  -4.109  -0.050  1.00  0.00     0.158 HD
ATOM     24  H   UNL     1       4.742  -3.185  -0.059  1.00  0.00     0.158 HD
ENDBRANCH  10  22
BRANCH  12  25
ATOM     25  C   UNL     1       4.803  -0.481  -0.044  1.00  0.00     0.049 A 
ATOM     26  C   UNL     1       5.607  -0.820   1.036  1.00  0.00     0.028 A 
ATOM     27  C   UNL     1       5.353   0.175  -1.137  1.00  0.00     0.028 A 
ATOM     28  C   UNL     1       6.951  -0.499   1.022  1.00  0.00     0.018 A 
ATOM     29  C   UNL     1       6.696   0.498  -1.144  1.00  0.00     0.018 A 
ATOM     30  C   UNL     1       7.495   0.159  -0.066  1.00  0.00     0.018 A 
ATOM     31  Br  UNL     1       9.335   0.597  -0.081  1.00  0.00    -0.051 Br
ENDBRANCH  12  25
ENDBRANCH   7   9
ENDBRANCH   6   7
ENDBRANCH   1   6
TORSDOF 8
