REMARK SMILES Cc1ccc(S(=O)(=O)NCc2nc(NCc3ccccc3F)c3cccc(C)c3n2)s1
REMARK SMILES IDX 28 1 27 2 26 3 25 4 24 5 23 6 29 7 30 8 11 9 12 10 13 11
REMARK SMILES IDX 14 12 15 14 16 15 21 16 17 17 20 18 22 19 18 20 19 21 10 22
REMARK SMILES IDX 9 23 6 25 7 26 8 27 5 28 31 29 4 30 2 31 3 32 1 33
REMARK H PARENT 14 13 9 24
REMARK Flexibility Score: inf
ROOT
ATOM      1  C   UNL     1      -1.290  -0.780   0.011  1.00  0.00     0.047 C 
ATOM      2  C   UNL     1       0.002  -0.004   0.002  1.00  0.00    -0.025 A 
ATOM      3  C   UNL     1      -0.016   1.359   0.009  1.00  0.00     0.006 A 
ATOM      4  C   UNL     1       1.166   2.093   0.002  1.00  0.00     0.001 A 
ATOM      5  C   UNL     1       2.378   1.467  -0.013  1.00  0.00     0.014 A 
ATOM      6  C   UNL     1       2.432   0.069  -0.021  1.00  0.00     0.043 A 
ATOM      7  C   UNL     1       1.230  -0.679  -0.013  1.00  0.00     0.079 A 
ATOM      8  N   UNL     1       1.304  -2.018  -0.021  1.00  0.00    -0.231 NA
ATOM      9  C   UNL     1       2.470  -2.620  -0.035  1.00  0.00     0.146 A 
ATOM     10  N   UNL     1       3.619  -1.963  -0.042  1.00  0.00    -0.214 NA
ATOM     11  C   UNL     1       3.660  -0.637  -0.036  1.00  0.00     0.137 A 
ENDROOT
BRANCH  11  12
ATOM     12  N   UNL     1       4.864   0.034  -0.044  1.00  0.00    -0.365 N 
ATOM     13  H   UNL     1       4.879   1.064  -0.039  1.00  0.00     0.162 HD
BRANCH  12  14
ATOM     14  C   UNL     1       6.121  -0.717  -0.059  1.00  0.00     0.153 C 
BRANCH  14  15
ATOM     15  C   UNL     1       7.281   0.246  -0.066  1.00  0.00     0.007 A 
ATOM     16  C   UNL     1       7.692   0.843   1.113  1.00  0.00     0.128 A 
ATOM     17  C   UNL     1       7.938   0.529  -1.249  1.00  0.00     0.008 A 
ATOM     18  C   UNL     1       8.758   1.727   1.106  1.00  0.00     0.039 A 
ATOM     19  F   UNL     1       7.054   0.562   2.271  1.00  0.00    -0.207 F 
ATOM     20  C   UNL     1       8.998   1.416  -1.256  1.00  0.00     0.001 A 
ATOM     21  C   UNL     1       9.409   2.013  -0.078  1.00  0.00     0.003 A 
ENDBRANCH  14  15
ENDBRANCH  12  14
ENDBRANCH  11  12
BRANCH   9  22
ATOM     22  C   UNL     1       2.502  -4.126  -0.043  1.00  0.00     0.176 C 
BRANCH  22  23
ATOM     23  N   UNL     1       2.526  -4.621   1.336  1.00  0.00    -0.203 NA
ATOM     24  H   UNL     1       2.750  -3.980   2.110  1.00  0.00     0.141 HD
BRANCH  23  25
ATOM     25  S   UNL     1       2.192  -6.213   1.650  1.00  0.00     0.250 S 
ATOM     26  O   UNL     1       2.320  -6.385   3.055  1.00  0.00    -0.206 OA
ATOM     27  O   UNL     1       0.994  -6.522   0.951  1.00  0.00    -0.206 OA
BRANCH  25  28
ATOM     28  C   UNL     1       3.471  -7.170   0.907  1.00  0.00     0.135 A 
ATOM     29  S   UNL     1       3.545  -7.864  -0.737  1.00  0.00    -0.128 S 
ATOM     30  C   UNL     1       4.651  -7.576   1.436  1.00  0.00     0.034 A 
ATOM     31  C   UNL     1       5.148  -8.640  -0.610  1.00  0.00     0.003 A 
ATOM     32  C   UNL     1       5.510  -8.329   0.659  1.00  0.00     0.016 A 
ATOM     33  C   UNL     1       5.900  -9.438  -1.643  1.00  0.00     0.056 C 
ENDBRANCH  25  28
ENDBRANCH  23  25
ENDBRANCH  22  23
ENDBRANCH   9  22
TORSDOF 7
