REMARK SMILES O=C(COc1c(Cl)cc(Cl)cc1Cl)/N=N/c1c([O-])[nH]c2c(Br)cc(Br)cc12
REMARK SMILES IDX 3 1 4 2 5 3 8 4 6 5 9 6 7 7 11 8 10 9 12 10 13 11 2 12 1 13
REMARK SMILES IDX 14 14 15 15 16 16 17 17 27 18 19 19 18 20 20 21 26 22 21 24
REMARK SMILES IDX 24 25 23 26 22 27 25 28
REMARK H PARENT 19 23
REMARK Flexibility Score: inf
ROOT
ATOM      1  C   UNL     1       6.572   6.825  -0.024  1.00  0.00     0.333 C 
ENDROOT
BRANCH   1   2
ATOM      2  O   UNL     1       7.924   6.362  -0.038  1.00  0.00    -0.480 OA
BRANCH   2   3
ATOM      3  C   UNL     1       8.901   7.309  -0.043  1.00  0.00     0.157 A 
ATOM      4  C   UNL     1      10.381   8.760  -1.248  1.00  0.00     0.045 A 
ATOM      5  C   UNL     1       9.393   7.794  -1.246  1.00  0.00     0.086 A 
ATOM      6  C   UNL     1      10.888   9.235  -0.051  1.00  0.00     0.044 A 
ATOM      7  Cl  UNL     1       8.762   7.193  -2.748  1.00  0.00    -0.080 Cl
ATOM      8  C   UNL     1      10.403   8.749   1.149  1.00  0.00     0.045 A 
ATOM      9  Cl  UNL     1      12.135  10.443  -0.057  1.00  0.00    -0.084 Cl
ATOM     10  C   UNL     1       9.411   7.786   1.156  1.00  0.00     0.086 A 
ATOM     11  Cl  UNL     1       8.802   7.177   2.664  1.00  0.00    -0.080 Cl
ENDBRANCH   2   3
ENDBRANCH   1   2
BRANCH   1  12
ATOM     12  C   UNL     1       5.637   5.643  -0.021  1.00  0.00     0.302 C 
ATOM     13  O   UNL     1       6.085   4.514  -0.030  1.00  0.00    -0.267 OA
BRANCH  12  14
ATOM     14  N   UNL     1       4.311   5.838  -0.008  1.00  0.00    -0.107 NA
ATOM     15  N   UNL     1       3.510   4.827  -0.005  1.00  0.00    -0.146 NA
BRANCH  15  16
ATOM     16  C   UNL     1       2.191   5.021   0.007  1.00  0.00     0.104 A 
ATOM     17  C   UNL     1       1.520   6.251   0.020  1.00  0.00    -0.011 A 
ATOM     18  C   UNL     1       1.140   3.982   0.012  1.00  0.00     0.029 A 
ATOM     19  N   UNL     1       0.185   6.027   0.031  1.00  0.00    -0.365 N 
ATOM     20  O   UNL     1       2.109   7.464   0.021  1.00  0.00    -0.859 OA
ATOM     21  C   UNL     1      -0.084   4.667   0.027  1.00  0.00     0.062 A 
ATOM     22  C   UNL     1       1.163   2.591   0.005  1.00  0.00     0.028 A 
ATOM     23  H   UNL     1      -0.533   6.766   0.042  1.00  0.00     0.165 HD
ATOM     24  C   UNL     1      -1.270   3.941   0.034  1.00  0.00     0.043 A 
ATOM     25  C   UNL     1      -0.024   1.887   0.012  1.00  0.00     0.019 A 
ATOM     26  C   UNL     1      -1.235   2.562   0.022  1.00  0.00     0.033 A 
ATOM     27  Br  UNL     1      -2.931   4.845   0.054  1.00  0.00    -0.048 Br
ATOM     28  Br  UNL     1       0.002  -0.004   0.002  1.00  0.00    -0.051 Br
ENDBRANCH  15  16
ENDBRANCH  12  14
ENDBRANCH   1  12
TORSDOF 5
