REMARK SMILES c1cc([C@H]2C[NH2+]CCO2)c2nc(SSc3nc4c([C@H]5C[NH2+]CCO5)cccc4s3)sc2c1
REMARK SMILES IDX 13 1 12 2 1 3 32 4 2 5 31 6 3 7 10 8 30 9 11 10 4 11 9 12
REMARK SMILES IDX 5 13 8 14 6 15 7 16 14 19 15 20 29 21 16 22 28 23 17 24
REMARK SMILES IDX 27 25 18 26 26 27 25 28 19 29 24 30 20 31 23 32 21 33 22 34
REMARK H PARENT 6 17 6 18 21 35 21 36
REMARK Flexibility Score: inf
ROOT
ATOM      1  S   UNL     1      -3.593   6.432   0.069  1.00  0.00    -0.019 SA
ENDROOT
BRANCH   1   2
ATOM      2  C   UNL     1      -2.289   5.247   0.051  1.00  0.00     0.162 A 
ATOM      3  C   UNL     1       1.188   1.770   0.000  1.00  0.00     0.002 A 
ATOM      4  C   UNL     1       1.171   3.154   0.007  1.00  0.00     0.021 A 
ATOM      5  C   UNL     1      -0.013   1.076   0.008  1.00  0.00     0.009 A 
ATOM      6  C   UNL     1      -0.030   3.816   0.022  1.00  0.00     0.056 A 
ATOM      7  C   UNL     1      -1.218   1.729   0.017  1.00  0.00     0.014 A 
ATOM      8  C   UNL     1      -1.273   3.142   0.030  1.00  0.00     0.089 A 
ATOM      9  S   UNL     1      -0.523   5.523   0.036  1.00  0.00    -0.107 S 
ATOM     10  N   UNL     1      -2.368   3.933   0.045  1.00  0.00    -0.228 NA
BRANCH   7  11
ATOM     11  C   UNL     1      -2.497   0.933   0.020  1.00  0.00     0.205 C 
ATOM     12  O   UNL     1      -2.253  -0.361   0.577  1.00  0.00    -0.362 OA
ATOM     13  C   UNL     1      -3.005   0.777  -1.416  1.00  0.00     0.298 C 
ATOM     14  C   UNL     1      -3.406  -1.207   0.594  1.00  0.00     0.222 C 
ATOM     15  N   UNL     1      -4.210  -0.064  -1.416  1.00  0.00    -0.342 N 
ATOM     16  C   UNL     1      -3.923  -1.385  -0.836  1.00  0.00     0.289 C 
ATOM     17  H   UNL     1      -4.544  -0.183  -2.383  1.00  0.00     0.346 HD
ATOM     18  H   UNL     1      -4.947   0.397  -0.863  1.00  0.00     0.346 HD
ENDBRANCH   7  11
ENDBRANCH   1   2
BRANCH   1  19
ATOM     19  S   UNL     1      -3.840   6.662   2.101  1.00  0.00    -0.019 SA
BRANCH  19  20
ATOM     20  C   UNL     1      -2.603   7.875   2.424  1.00  0.00     0.162 A 
ATOM     21  S   UNL     1      -1.475   8.658   1.280  1.00  0.00    -0.107 S 
ATOM     22  N   UNL     1      -2.279   8.439   3.568  1.00  0.00    -0.228 NA
ATOM     23  C   UNL     1      -0.641   9.692   2.461  1.00  0.00     0.056 A 
ATOM     24  C   UNL     1      -1.296   9.360   3.668  1.00  0.00     0.089 A 
ATOM     25  C   UNL     1       0.373  10.614   2.397  1.00  0.00     0.021 A 
ATOM     26  C   UNL     1      -0.847  10.034   4.828  1.00  0.00     0.014 A 
ATOM     27  C   UNL     1       0.787  11.254   3.551  1.00  0.00     0.002 A 
ATOM     28  C   UNL     1       0.167  10.953   4.755  1.00  0.00     0.009 A 
BRANCH  26  29
ATOM     29  C   UNL     1      -1.491   9.739   6.158  1.00  0.00     0.205 C 
ATOM     30  O   UNL     1      -1.329  10.863   7.027  1.00  0.00    -0.362 OA
ATOM     31  C   UNL     1      -0.825   8.513   6.788  1.00  0.00     0.298 C 
ATOM     32  C   UNL     1      -1.882  10.667   8.331  1.00  0.00     0.222 C 
ATOM     33  N   UNL     1      -1.404   8.276   8.118  1.00  0.00    -0.342 N 
ATOM     34  C   UNL     1      -1.220   9.451   8.983  1.00  0.00     0.289 C 
ATOM     35  H   UNL     1      -0.946   7.461   8.550  1.00  0.00     0.346 HD
ATOM     36  H   UNL     1      -2.411   8.081   8.021  1.00  0.00     0.346 HD
ENDBRANCH  26  29
ENDBRANCH  19  20
ENDBRANCH   1  19
TORSDOF 5
