REMARK SMILES O=C(CCCC(=O)NN=C1CC[NH+](Cc2ccccc2)CC1)NN=C1CC[NH+](Cc2ccccc2)CC1
REMARK SMILES IDX 4 1 3 2 2 3 23 4 1 6 24 7 28 8 27 9 36 10 26 12 37 13 25 14
REMARK SMILES IDX 29 15 30 16 33 17 34 18 32 19 35 20 31 21 5 22 6 23 7 24
REMARK SMILES IDX 8 25 9 27 10 28 22 29 11 30 21 31 12 32 13 33 14 35 15 36
REMARK SMILES IDX 20 37 16 38 19 39 17 40 18 41
REMARK H PARENT 23 5 28 11 8 26 13 34
REMARK Flexibility Score: inf
ROOT
ATOM      1  C   UNL     1       0.795   4.583   6.757  1.00  0.00     0.020 C 
ENDROOT
BRANCH   1   2
ATOM      2  C   UNL     1       0.568   3.470   5.732  1.00  0.00     0.102 C 
BRANCH   2   3
ATOM      3  C   UNL     1       0.137   4.075   4.421  1.00  0.00     0.240 C 
ATOM      4  N   UNL     1      -0.121   3.280   3.364  1.00  0.00    -0.247 N 
ATOM      5  H   UNL     1      -0.024   2.258   3.453  1.00  0.00     0.193 HD
ATOM      6  O   UNL     1       0.023   5.279   4.316  1.00  0.00    -0.273 OA
BRANCH   4   7
ATOM      7  N   UNL     1      -0.522   3.842   2.145  1.00  0.00    -0.182 NA
ATOM      8  N   UNL     1      -0.738   1.570  -1.190  1.00  0.00    -0.331 N 
ATOM      9  C   UNL     1       0.015   1.097  -0.008  1.00  0.00     0.268 C 
ATOM     10  C   UNL     1      -0.659   3.045  -1.292  1.00  0.00     0.268 C 
ATOM     11  H   UNL     1      -1.725   1.298  -1.085  1.00  0.00     0.348 HD
ATOM     12  C   UNL     1      -0.700   1.580   1.258  1.00  0.00     0.115 C 
ATOM     13  C   UNL     1      -1.421   3.660  -0.112  1.00  0.00     0.115 C 
ATOM     14  C   UNL     1      -0.856   3.084   1.169  1.00  0.00     0.050 C 
BRANCH   8  15
ATOM     15  C   UNL     1      -0.193   0.952  -2.416  1.00  0.00     0.299 C 
BRANCH  15  16
ATOM     16  C   UNL     1      -1.106   1.278  -3.570  1.00  0.00     0.006 A 
ATOM     17  C   UNL     1      -2.780   1.876  -5.686  1.00  0.00     0.000 A 
ATOM     18  C   UNL     1      -3.006   0.745  -4.925  1.00  0.00     0.001 A 
ATOM     19  C   UNL     1      -1.717   2.708  -5.390  1.00  0.00     0.001 A 
ATOM     20  C   UNL     1      -2.166   0.443  -3.869  1.00  0.00     0.009 A 
ATOM     21  C   UNL     1      -0.880   2.409  -4.332  1.00  0.00     0.009 A 
ENDBRANCH  15  16
ENDBRANCH   8  15
ENDBRANCH   4   7
ENDBRANCH   2   3
ENDBRANCH   1   2
BRANCH   1  22
ATOM     22  C   UNL     1       1.232   3.969   8.088  1.00  0.00     0.102 C 
BRANCH  22  23
ATOM     23  C   UNL     1       1.456   5.065   9.098  1.00  0.00     0.240 C 
ATOM     24  O   UNL     1       1.282   6.224   8.784  1.00  0.00    -0.273 OA
ATOM     25  N   UNL     1       1.849   4.758  10.350  1.00  0.00    -0.247 N 
ATOM     26  H   UNL     1       1.996   3.774  10.617  1.00  0.00     0.193 HD
BRANCH  25  27
ATOM     27  N   UNL     1       2.057   5.777  11.289  1.00  0.00    -0.182 NA
ATOM     28  C   UNL     1       2.527   5.496  12.446  1.00  0.00     0.050 C 
ATOM     29  C   UNL     1       2.862   6.587  13.441  1.00  0.00     0.115 C 
ATOM     30  C   UNL     1       2.760   4.060  12.867  1.00  0.00     0.115 C 
ATOM     31  C   UNL     1       4.272   6.325  13.983  1.00  0.00     0.268 C 
ATOM     32  C   UNL     1       4.181   3.959  13.445  1.00  0.00     0.268 C 
ATOM     33  N   UNL     1       4.322   4.951  14.533  1.00  0.00    -0.331 N 
ATOM     34  H   UNL     1       3.542   4.830  15.195  1.00  0.00     0.348 HD
BRANCH  33  35
ATOM     35  C   UNL     1       5.599   4.740  15.244  1.00  0.00     0.299 C 
BRANCH  35  36
ATOM     36  C   UNL     1       5.534   3.423  15.972  1.00  0.00     0.006 A 
ATOM     37  C   UNL     1       5.970   2.268  15.351  1.00  0.00     0.009 A 
ATOM     38  C   UNL     1       5.045   3.370  17.264  1.00  0.00     0.009 A 
ATOM     39  C   UNL     1       5.912   1.059  16.019  1.00  0.00     0.001 A 
ATOM     40  C   UNL     1       4.981   2.160  17.930  1.00  0.00     0.001 A 
ATOM     41  C   UNL     1       5.417   1.005  17.308  1.00  0.00     0.000 A 
ENDBRANCH  35  36
ENDBRANCH  33  35
ENDBRANCH  25  27
ENDBRANCH  22  23
ENDBRANCH   1  22
TORSDOF 10
