REMARK SMILES CCCCOc1ccc(-c2n[nH]c3c2[C@@H](c2cc4c(cc2Br)OCO4)C(C#N)=C(N)O3)cc1
REMARK SMILES IDX 5 1 4 2 3 3 2 4 1 5 6 6 33 7 7 8 32 9 8 10 9 11 10 12 11 13
REMARK SMILES IDX 14 14 12 15 15 16 13 17 26 19 31 20 29 21 16 22 21 23 17 24
REMARK SMILES IDX 20 25 22 26 18 27 19 28 25 29 23 30 24 31 27 32 28 33 30 34
REMARK H PARENT 12 18 30 35 30 36
REMARK Flexibility Score: inf
ROOT
ATOM      1  O   UNL     1      -9.978   3.210   1.594  1.00  0.00    -0.494 OA
ENDROOT
BRANCH   1   2
ATOM      2  C   UNL     1     -10.887   4.148   1.014  1.00  0.00     0.229 C 
BRANCH   2   3
ATOM      3  C   UNL     1     -12.322   3.758   1.377  1.00  0.00     0.041 C 
BRANCH   3   4
ATOM      4  C   UNL     1     -13.296   4.761   0.755  1.00  0.00     0.000 C 
ATOM      5  C   UNL     1     -14.730   4.371   1.118  1.00  0.00     0.004 C 
ENDBRANCH   3   4
ENDBRANCH   2   3
ENDBRANCH   1   2
BRANCH   1   6
ATOM      6  C   UNL     1      -8.654   3.414   1.367  1.00  0.00     0.119 A 
ATOM      7  C   UNL     1      -8.241   4.495   0.600  1.00  0.00     0.047 A 
ATOM      8  C   UNL     1      -7.717   2.540   1.902  1.00  0.00     0.047 A 
ATOM      9  C   UNL     1      -6.897   4.707   0.372  1.00  0.00     0.014 A 
ATOM     10  C   UNL     1      -6.372   2.744   1.672  1.00  0.00     0.014 A 
ATOM     11  C   UNL     1      -5.955   3.828   0.902  1.00  0.00     0.003 A 
BRANCH  11  12
ATOM     12  C   UNL     1      -4.508   4.050   0.654  1.00  0.00     0.100 A 
ATOM     13  N   UNL     1      -3.881   5.210   0.707  1.00  0.00    -0.172 NA
ATOM     14  C   UNL     1      -3.571   3.068   0.321  1.00  0.00     0.055 A 
ATOM     15  N   UNL     1      -2.526   4.993   0.409  1.00  0.00    -0.246 N 
ATOM     16  C   UNL     1      -3.768   1.586   0.133  1.00  0.00     0.105 C 
ATOM     17  C   UNL     1      -2.357   3.675   0.177  1.00  0.00     0.222 A 
ATOM     18  H   UNL     1      -1.791   5.714   0.374  1.00  0.00     0.193 HD
ATOM     19  C   UNL     1      -2.409   0.933   0.078  1.00  0.00     0.102 C 
ATOM     20  O   UNL     1      -1.229   2.991  -0.138  1.00  0.00    -0.422 OA
ATOM     21  C   UNL     1      -1.268   1.646  -0.053  1.00  0.00     0.207 C 
BRANCH  16  22
ATOM     22  C   UNL     1      -4.507   1.331  -1.155  1.00  0.00    -0.017 A 
ATOM     23  C   UNL     1      -5.639   0.536  -1.155  1.00  0.00     0.026 A 
ATOM     24  C   UNL     1      -4.050   1.887  -2.335  1.00  0.00     0.056 A 
ATOM     25  C   UNL     1      -6.324   0.304  -2.334  1.00  0.00     0.066 A 
ATOM     26  Br  UNL     1      -6.256  -0.227   0.461  1.00  0.00    -0.050 Br
ATOM     27  C   UNL     1      -4.727   1.654  -3.520  1.00  0.00     0.166 A 
ATOM     28  C   UNL     1      -5.871   0.858  -3.520  1.00  0.00     0.166 A 
ATOM     29  O   UNL     1      -4.490   2.075  -4.797  1.00  0.00    -0.454 OA
ATOM     30  O   UNL     1      -6.349   0.781  -4.796  1.00  0.00    -0.454 OA
ATOM     31  C   UNL     1      -5.725   1.867  -5.506  1.00  0.00     0.468 C 
ENDBRANCH  16  22
BRANCH  19  32
ATOM     32  C   UNL     1      -2.325  -0.493   0.169  1.00  0.00     0.101 C 
ATOM     33  N   UNL     1      -2.258  -1.625   0.241  1.00  0.00    -0.193 NA
ENDBRANCH  19  32
BRANCH  21  34
ATOM     34  N   UNL     1      -0.080   0.961  -0.099  1.00  0.00    -0.369 N 
ATOM     35  H   UNL     1       0.820   1.453  -0.194  1.00  0.00     0.159 HD
ATOM     36  H   UNL     1      -0.092  -0.067  -0.035  1.00  0.00     0.159 HD
ENDBRANCH  21  34
ENDBRANCH  11  12
ENDBRANCH   1   6
TORSDOF 8
