REMARK SMILES O=C(CCCCCN1C(=O)/C(=C\C=C/c2ccccc2)SC1=S)NNC(=O)c1ccccc1O
REMARK SMILES IDX 5 1 6 2 7 3 8 4 12 5 11 6 21 7 9 8 22 9 10 10 23 11 13 12
REMARK SMILES IDX 14 13 15 14 18 15 19 16 17 17 20 18 16 19 4 20 3 21 2 22
REMARK SMILES IDX 1 23 24 24 25 26 26 27 27 29 28 30 33 31 29 32 32 33 30 34
REMARK SMILES IDX 31 35 34 36
REMARK H PARENT 24 25 25 28 34 37
REMARK Flexibility Score: inf
ROOT
ATOM      1  C   UNL     1      -6.931   0.048  -1.253  1.00  0.00     0.002 C 
ENDROOT
BRANCH   1   2
ATOM      2  C   UNL     1      -5.469  -0.286  -1.559  1.00  0.00     0.022 C 
BRANCH   2   3
ATOM      3  C   UNL     1      -4.802  -0.853  -0.305  1.00  0.00     0.127 C 
BRANCH   3   4
ATOM      4  N   UNL     1      -3.403  -1.173  -0.598  1.00  0.00    -0.293 N 
ATOM      5  C   UNL     1       0.060   0.101  -0.629  1.00  0.00     0.021 C 
ATOM      6  C   UNL     1      -1.087  -0.632  -0.723  1.00  0.00     0.080 C 
ATOM      7  S   UNL     1      -1.319  -2.319  -1.269  1.00  0.00    -0.054 SA
ATOM      8  C   UNL     1      -2.476  -0.249  -0.410  1.00  0.00     0.266 C 
ATOM      9  C   UNL     1      -3.090  -2.403  -1.054  1.00  0.00     0.148 C 
ATOM     10  O   UNL     1      -2.755   0.862   0.002  1.00  0.00    -0.268 OA
ATOM     11  S   UNL     1      -4.136  -3.723  -1.359  1.00  0.00    -0.052 S 
BRANCH   5  12
ATOM     12  C   UNL     1       0.009   1.433  -0.173  1.00  0.00     0.002 C 
ATOM     13  C   UNL     1       1.135   2.184  -0.149  1.00  0.00     0.008 C 
BRANCH  13  14
ATOM     14  C   UNL     1       2.439   1.563  -0.425  1.00  0.00    -0.026 A 
ATOM     15  C   UNL     1       4.896   0.393  -0.943  1.00  0.00     0.000 A 
ATOM     16  C   UNL     1       3.919  -0.325  -0.275  1.00  0.00     0.001 A 
ATOM     17  C   UNL     1       4.652   1.692  -1.353  1.00  0.00     0.001 A 
ATOM     18  C   UNL     1       2.696   0.251  -0.009  1.00  0.00     0.008 A 
ATOM     19  C   UNL     1       3.432   2.281  -1.099  1.00  0.00     0.008 A 
ENDBRANCH  13  14
ENDBRANCH   5  12
ENDBRANCH   3   4
ENDBRANCH   2   3
ENDBRANCH   1   2
BRANCH   1  20
ATOM     20  C   UNL     1      -7.598   0.616  -2.508  1.00  0.00     0.010 C 
BRANCH  20  21
ATOM     21  C   UNL     1      -9.059   0.950  -2.202  1.00  0.00     0.102 C 
BRANCH  21  22
ATOM     22  C   UNL     1      -9.716   1.509  -3.437  1.00  0.00     0.238 C 
ATOM     23  O   UNL     1      -9.078   1.629  -4.462  1.00  0.00    -0.273 OA
ATOM     24  N   UNL     1     -11.012   1.877  -3.404  1.00  0.00    -0.267 N 
ATOM     25  H   UNL     1     -11.554   1.775  -2.534  1.00  0.00     0.191 HD
BRANCH  24  26
ATOM     26  N   UNL     1     -11.623   2.396  -4.553  1.00  0.00    -0.263 N 
ATOM     27  C   UNL     1     -12.919   2.764  -4.519  1.00  0.00     0.273 C 
ATOM     28  H   UNL     1     -11.081   2.498  -5.423  1.00  0.00     0.191 HD
ATOM     29  O   UNL     1     -13.559   2.644  -3.492  1.00  0.00    -0.267 OA
BRANCH  27  30
ATOM     30  C   UNL     1     -13.562   3.311  -5.729  1.00  0.00     0.083 A 
ATOM     31  C   UNL     1     -14.910   3.694  -5.698  1.00  0.00     0.128 A 
ATOM     32  C   UNL     1     -12.830   3.456  -6.910  1.00  0.00     0.018 A 
ATOM     33  C   UNL     1     -15.504   4.208  -6.842  1.00  0.00     0.047 A 
ATOM     34  C   UNL     1     -13.438   3.963  -8.037  1.00  0.00     0.001 A 
ATOM     35  C   UNL     1     -14.770   4.340  -8.003  1.00  0.00     0.004 A 
BRANCH  31  36
ATOM     36  O   UNL     1     -15.630   3.564  -4.556  1.00  0.00    -0.507 OA
ATOM     37  H   UNL     1     -15.123   4.077  -3.877  1.00  0.00     0.293 HD
ENDBRANCH  31  36
ENDBRANCH  27  30
ENDBRANCH  24  26
ENDBRANCH  21  22
ENDBRANCH  20  21
ENDBRANCH   1  20
TORSDOF 11
