REMARK SMILES C[C@@H](Sc1nc2sc3c(c2c(=O)[nH]1)CCCC3)C(=O)NC(=O)N[C@]12C[C@H]3C[C@H](C[C@H](C3)C1)C2
REMARK SMILES IDX 1 1 2 2 18 3 19 4 20 5 21 6 22 8 23 9 24 11 25 12 32 13
REMARK SMILES IDX 33 14 26 15 30 16 28 17 27 18 31 19 29 20 3 21 4 22 5 23
REMARK SMILES IDX 13 24 6 25 11 26 10 28 7 29 12 30 9 31 8 32 14 33 17 34
REMARK SMILES IDX 15 35 16 36
REMARK H PARENT 20 7 23 10 13 27
REMARK Flexibility Score: inf
ROOT
ATOM      1  C   UNL     1      -2.272  -5.675   1.966  1.00  0.00     0.030 C 
ATOM      2  C   UNL     1      -2.193  -6.333   0.586  1.00  0.00     0.141 C 
ENDROOT
BRANCH   2   3
ATOM      3  C   UNL     1      -2.857  -7.684   0.636  1.00  0.00     0.241 C 
ATOM      4  O   UNL     1      -2.192  -8.680   0.829  1.00  0.00    -0.273 OA
ATOM      5  N   UNL     1      -4.190  -7.787   0.465  1.00  0.00    -0.277 N 
ATOM      6  C   UNL     1      -4.784  -8.996   0.509  1.00  0.00     0.321 C 
ATOM      7  H   UNL     1      -4.755  -6.941   0.301  1.00  0.00     0.174 HD
ATOM      8  O   UNL     1      -4.118  -9.994   0.703  1.00  0.00    -0.248 OA
ATOM      9  N   UNL     1      -6.117  -9.098   0.339  1.00  0.00    -0.332 N 
ATOM     10  H   UNL     1      -6.682  -8.253   0.175  1.00  0.00     0.165 HD
BRANCH   9  11
ATOM     11  C   UNL     1      -6.763 -10.412   0.387  1.00  0.00     0.043 C 
ATOM     12  C   UNL     1      -8.268 -10.249   0.166  1.00  0.00     0.032 C 
ATOM     13  C   UNL     1      -6.515 -11.053   1.754  1.00  0.00     0.032 C 
ATOM     14  C   UNL     1      -6.180 -11.307  -0.709  1.00  0.00     0.032 C 
ATOM     15  C   UNL     1      -8.942 -11.622   0.216  1.00  0.00    -0.008 C 
ATOM     16  C   UNL     1      -7.189 -12.425   1.804  1.00  0.00    -0.008 C 
ATOM     17  C   UNL     1      -6.855 -12.680  -0.659  1.00  0.00    -0.008 C 
ATOM     18  C   UNL     1      -8.360 -12.517  -0.880  1.00  0.00     0.007 C 
ATOM     19  C   UNL     1      -8.694 -12.262   1.583  1.00  0.00     0.007 C 
ATOM     20  C   UNL     1      -6.606 -13.320   0.709  1.00  0.00     0.007 C 
ENDBRANCH   9  11
ENDBRANCH   2   3
BRANCH   2  21
ATOM     21  S   UNL     1      -0.458  -6.530   0.111  1.00  0.00    -0.075 SA
BRANCH  21  22
ATOM     22  C   UNL     1       0.020  -4.839  -0.015  1.00  0.00     0.170 A 
ATOM     23  N   UNL     1      -0.885  -3.902   0.237  1.00  0.00    -0.213 NA
ATOM     24  N   UNL     1       1.303  -4.546  -0.365  1.00  0.00    -0.301 N 
ATOM     25  C   UNL     1      -0.497  -2.637   0.133  1.00  0.00     0.132 A 
ATOM     26  C   UNL     1       1.763  -3.279  -0.488  1.00  0.00     0.260 A 
ATOM     27  H   UNL     1       1.953  -5.325  -0.545  1.00  0.00     0.172 HD
ATOM     28  C   UNL     1       0.812  -2.240  -0.225  1.00  0.00     0.080 A 
ATOM     29  S   UNL     1      -1.341  -1.105   0.368  1.00  0.00    -0.120 S 
ATOM     30  O   UNL     1       2.916  -3.037  -0.802  1.00  0.00    -0.269 OA
ATOM     31  C   UNL     1       1.051  -0.807  -0.287  1.00  0.00    -0.019 A 
ATOM     32  C   UNL     1       0.002  -0.004   0.002  1.00  0.00     0.011 A 
ATOM     33  C   UNL     1       2.406  -0.211  -0.659  1.00  0.00     0.037 C 
ATOM     34  C   UNL     1      -0.018   1.493   0.010  1.00  0.00     0.047 C 
ATOM     35  C   UNL     1       2.207   1.244  -1.083  1.00  0.00     0.005 C 
ATOM     36  C   UNL     1       1.431   2.000  -0.001  1.00  0.00     0.006 C 
ENDBRANCH  21  22
ENDBRANCH   2  21
TORSDOF 4
