REMARK SMILES NC(=O)Nc1ccc(C(=O)NCC2CCN(c3cc[nH+]cc3)CC2)cc1OCCc1ccc(Cl)cc1Cl
REMARK SMILES IDX 7 1 6 2 5 3 26 4 25 5 8 6 9 7 10 8 11 9 12 11 13 12 24 13
REMARK SMILES IDX 14 14 23 15 15 16 16 17 17 18 22 19 18 20 21 21 19 22 20 23
REMARK SMILES IDX 4 25 2 26 3 28 1 29 27 32 28 33 29 34 30 35 36 36 31 37
REMARK SMILES IDX 35 38 37 39 32 40 33 41 34 42
REMARK H PARENT 11 10 20 24 4 27 1 30 1 31
REMARK Flexibility Score: inf
ROOT
ATOM      1  C   UNL     1      -3.658  -0.845  -0.158  1.00  0.00     0.016 A 
ATOM      2  C   UNL     1      -2.452  -0.184  -0.071  1.00  0.00     0.031 A 
ATOM      3  C   UNL     1      -2.415   1.205  -0.070  1.00  0.00     0.085 A 
ATOM      4  C   UNL     1      -3.601   1.936  -0.151  1.00  0.00     0.143 A 
ATOM      5  C   UNL     1      -4.812   1.280  -0.243  1.00  0.00     0.062 A 
ATOM      6  C   UNL     1      -4.848  -0.118  -0.245  1.00  0.00     0.043 A 
ENDROOT
BRANCH   6   7
ATOM      7  C   UNL     1      -6.140  -0.824  -0.338  1.00  0.00     0.251 C 
ATOM      8  O   UNL     1      -7.175  -0.191  -0.413  1.00  0.00    -0.269 OA
ATOM      9  N   UNL     1      -6.173  -2.172  -0.340  1.00  0.00    -0.352 N 
ATOM     10  H   UNL     1      -5.296  -2.708  -0.276  1.00  0.00     0.163 HD
BRANCH   9  11
ATOM     11  C   UNL     1      -7.456  -2.873  -0.432  1.00  0.00     0.119 C 
BRANCH  11  12
ATOM     12  C   UNL     1      -7.214  -4.383  -0.414  1.00  0.00     0.012 C 
ATOM     13  C   UNL     1      -8.558  -5.117  -0.385  1.00  0.00     0.027 C 
ATOM     14  C   UNL     1      -6.445  -4.794  -1.672  1.00  0.00     0.027 C 
ATOM     15  C   UNL     1      -8.311  -6.626  -0.428  1.00  0.00     0.117 C 
ATOM     16  C   UNL     1      -6.259  -6.313  -1.678  1.00  0.00     0.117 C 
ATOM     17  N   UNL     1      -7.573  -6.968  -1.650  1.00  0.00    -0.371 N 
BRANCH  17  18
ATOM     18  C   UNL     1      -7.446  -8.347  -1.787  1.00  0.00     0.049 A 
ATOM     19  C   UNL     1      -6.778  -8.899  -2.880  1.00  0.00     0.096 A 
ATOM     20  C   UNL     1      -7.978  -9.213  -0.831  1.00  0.00     0.096 A 
ATOM     21  C   UNL     1      -6.674 -10.271  -2.978  1.00  0.00     0.308 A 
ATOM     22  C   UNL     1      -7.835 -10.573  -1.007  1.00  0.00     0.308 A 
ATOM     23  N   UNL     1      -7.188 -11.137  -2.063  1.00  0.00    -0.218 N 
ATOM     24  H   UNL     1      -7.094 -12.158  -2.164  1.00  0.00     0.453 HD
ENDBRANCH  17  18
ENDBRANCH  11  12
ENDBRANCH   9  11
ENDBRANCH   6   7
BRANCH   3  25
ATOM     25  N   UNL     1      -1.191   1.870   0.018  1.00  0.00    -0.305 N 
ATOM     26  C   UNL     1      -0.096   1.347  -0.570  1.00  0.00     0.316 C 
ATOM     27  H   UNL     1      -1.124   2.760   0.532  1.00  0.00     0.171 HD
ATOM     28  O   UNL     1      -0.156   0.257  -1.106  1.00  0.00    -0.249 OA
ATOM     29  N   UNL     1       1.063   2.034  -0.568  1.00  0.00    -0.351 N 
ATOM     30  H   UNL     1       1.113   2.959  -0.117  1.00  0.00     0.161 HD
ATOM     31  H   UNL     1       1.899   1.635  -1.017  1.00  0.00     0.161 HD
ENDBRANCH   3  25
BRANCH   4  32
ATOM     32  O   UNL     1      -3.563   3.296  -0.143  1.00  0.00    -0.491 OA
BRANCH  32  33
ATOM     33  C   UNL     1      -4.815   3.980  -0.229  1.00  0.00     0.234 C 
BRANCH  33  34
ATOM     34  C   UNL     1      -4.573   5.490  -0.206  1.00  0.00     0.078 C 
BRANCH  34  35
ATOM     35  C   UNL     1      -5.893   6.212  -0.297  1.00  0.00    -0.026 A 
ATOM     36  C   UNL     1      -6.513   6.370  -1.523  1.00  0.00     0.045 A 
ATOM     37  C   UNL     1      -6.482   6.721   0.846  1.00  0.00     0.007 A 
ATOM     38  C   UNL     1      -7.727   7.028  -1.605  1.00  0.00     0.041 A 
ATOM     39  Cl  UNL     1      -5.770   5.736  -2.959  1.00  0.00    -0.084 Cl
ATOM     40  C   UNL     1      -7.692   7.383   0.764  1.00  0.00     0.021 A 
ATOM     41  C   UNL     1      -8.315   7.537  -0.462  1.00  0.00     0.042 A 
ATOM     42  Cl  UNL     1      -9.836   8.368  -0.565  1.00  0.00    -0.084 Cl
ENDBRANCH  34  35
ENDBRANCH  33  34
ENDBRANCH  32  33
ENDBRANCH   4  32
TORSDOF 9
