REMARK SMILES Cc1cc(C)cc(CNC(=O)c2c(Br)c3ccccc3n2Cc2cccc(C(N)=[NH2+])c2)c1
REMARK SMILES IDX 12 1 13 2 15 3 16 4 17 5 18 6 19 7 20 8 21 9 14 10 10 11
REMARK SMILES IDX 9 12 11 14 8 15 7 16 1 17 2 18 32 19 3 20 4 21 6 22 5 23
REMARK SMILES IDX 22 24 23 25 31 26 24 27 27 28 25 29 26 30 28 31 29 32 30 33
REMARK H PARENT 9 13 29 34 29 35 30 36 30 37
REMARK Flexibility Score: inf
ROOT
ATOM      1  C   UNL     1       1.041  -2.081  -3.138  1.00  0.00     0.122 A 
ATOM      2  C   UNL     1       0.549  -2.715  -4.236  1.00  0.00     0.056 A 
ATOM      3  C   UNL     1      -0.843  -2.894  -4.042  1.00  0.00     0.015 A 
ATOM      4  C   UNL     1      -1.855  -3.474  -4.818  1.00  0.00     0.011 A 
ATOM      5  C   UNL     1      -3.137  -3.498  -4.353  1.00  0.00     0.001 A 
ATOM      6  C   UNL     1      -3.451  -2.953  -3.114  1.00  0.00     0.002 A 
ATOM      7  C   UNL     1      -2.474  -2.379  -2.333  1.00  0.00     0.027 A 
ATOM      8  C   UNL     1      -1.157  -2.346  -2.784  1.00  0.00     0.050 A 
ATOM      9  N   UNL     1       0.008  -1.848  -2.249  1.00  0.00    -0.331 N 
ATOM     10  Br  UNL     1       1.545  -3.261  -5.748  1.00  0.00    -0.048 Br
ENDROOT
BRANCH   1  11
ATOM     11  C   UNL     1       2.446  -1.702  -2.931  1.00  0.00     0.269 C 
ATOM     12  N   UNL     1       2.854  -0.449  -3.210  1.00  0.00    -0.347 N 
ATOM     13  H   UNL     1       2.168   0.265  -3.496  1.00  0.00     0.164 HD
ATOM     14  O   UNL     1       3.240  -2.521  -2.506  1.00  0.00    -0.268 OA
BRANCH  12  15
ATOM     15  C   UNL     1       4.274  -0.101  -3.108  1.00  0.00     0.152 C 
BRANCH  15  16
ATOM     16  C   UNL     1       4.448   1.375  -3.354  1.00  0.00    -0.028 A 
ATOM     17  C   UNL     1       4.849   3.727  -6.281  1.00  0.00     0.044 C 
ATOM     18  C   UNL     1       4.724   3.207  -4.872  1.00  0.00    -0.051 A 
ATOM     19  C   UNL     1       4.569   1.852  -4.646  1.00  0.00     0.009 A 
ATOM     20  C   UNL     1       4.768   4.084  -3.805  1.00  0.00     0.006 A 
ATOM     21  C   UNL     1       4.653   3.607  -2.512  1.00  0.00    -0.051 A 
ATOM     22  C   UNL     1       4.493   2.253  -2.287  1.00  0.00     0.009 A 
ATOM     23  C   UNL     1       4.701   4.564  -1.349  1.00  0.00     0.044 C 
ENDBRANCH  15  16
ENDBRANCH  12  15
ENDBRANCH   1  11
BRANCH   9  24
ATOM     24  C   UNL     1       0.135  -1.186  -0.948  1.00  0.00     0.158 C 
BRANCH  24  25
ATOM     25  C   UNL     1       0.368  -2.221   0.122  1.00  0.00    -0.027 A 
ATOM     26  C   UNL     1      -0.707  -2.828   0.739  1.00  0.00     0.022 A 
ATOM     27  C   UNL     1       1.659  -2.561   0.484  1.00  0.00     0.005 A 
ATOM     28  C   UNL     1      -0.490  -3.786   1.729  1.00  0.00     0.063 A 
ATOM     29  C   UNL     1       1.881  -3.510   1.466  1.00  0.00     0.001 A 
ATOM     30  C   UNL     1       0.814  -4.124   2.090  1.00  0.00     0.016 A 
BRANCH  28  31
ATOM     31  C   UNL     1      -1.639  -4.440   2.395  1.00  0.00     0.270 C 
ATOM     32  N   UNL     1      -1.426  -5.298   3.452  1.00  0.00    -0.287 N 
ATOM     33  N   UNL     1      -2.846  -4.159   1.928  1.00  0.00    -0.287 N 
ATOM     34  H   UNL     1      -0.467  -5.484   3.779  1.00  0.00     0.302 HD
ATOM     35  H   UNL     1      -2.225  -5.753   3.916  1.00  0.00     0.302 HD
ATOM     36  H   UNL     1      -2.994  -3.516   1.137  1.00  0.00     0.302 HD
ATOM     37  H   UNL     1      -3.660  -4.603   2.377  1.00  0.00     0.302 HD
ENDBRANCH  28  31
ENDBRANCH  24  25
ENDBRANCH   9  24
TORSDOF 6
