REMARK SMILES CC1(C)C=C2NN(c3ccccc3)[P@@](=S)(/N=c3\cccc[nH]3)C2=C([NH+]2CCCCC2)C1
REMARK SMILES IDX 1 1 2 2 31 3 24 4 23 5 5 6 4 7 6 8 7 9 14 10 15 11 3 12
REMARK SMILES IDX 25 14 26 15 30 16 27 18 29 19 28 20 16 21 17 22 22 23 18 24
REMARK SMILES IDX 21 25 19 27 20 28 8 29 13 30 9 31 12 32 10 33 11 34
REMARK H PARENT 6 13 25 17 22 26
REMARK Flexibility Score: inf
ROOT
ATOM      1  C   UNL     1       2.300   3.713   0.469  1.00  0.00     0.016 C 
ATOM      2  C   UNL     1       1.411   2.577  -0.042  1.00  0.00    -0.006 C 
ATOM      3  C   UNL     1       1.832   1.283   0.638  1.00  0.00     0.108 C 
ATOM      4  C   UNL     1       0.823   0.177   0.400  1.00  0.00     0.122 C 
ATOM      5  C   UNL     1      -0.443   0.532   0.303  1.00  0.00     0.108 C 
ATOM      6  C   UNL     1      -0.927   1.938   0.338  1.00  0.00     0.069 C 
ATOM      7  C   UNL     1      -0.030   2.937   0.211  1.00  0.00     0.008 C 
ATOM      8  N   UNL     1      -2.296   2.010   0.440  1.00  0.00    -0.292 N 
ATOM      9  N   UNL     1      -3.070   0.858   0.271  1.00  0.00    -0.235 N 
ATOM     10  P   UNL     1      -1.992  -0.406   0.167  1.00  0.00     0.199 P 
ATOM     11  S   UNL     1      -2.197  -1.597   1.585  1.00  0.00    -0.043 S 
ATOM     12  C   UNL     1       1.621   2.431  -1.551  1.00  0.00     0.016 C 
ATOM     13  H   UNL     1      -2.751   2.912   0.639  1.00  0.00     0.188 HD
ENDROOT
BRANCH   4  14
ATOM     14  N   UNL     1       1.535  -1.040   0.173  1.00  0.00    -0.305 N 
ATOM     15  C   UNL     1       0.999  -1.885  -0.961  1.00  0.00     0.267 C 
ATOM     16  C   UNL     1       1.843  -1.835   1.422  1.00  0.00     0.267 C 
ATOM     17  H   UNL     1       2.453  -0.712  -0.160  1.00  0.00     0.353 HD
ATOM     18  C   UNL     1       2.339  -2.490  -1.406  1.00  0.00     0.062 C 
ATOM     19  C   UNL     1       3.169  -2.442   0.952  1.00  0.00     0.062 C 
ATOM     20  C   UNL     1       2.915  -3.333  -0.266  1.00  0.00     0.012 C 
ENDBRANCH   4  14
BRANCH  10  21
ATOM     21  N   UNL     1      -2.104  -1.173  -1.278  1.00  0.00    -0.209 NA
ATOM     22  C   UNL     1      -2.229  -0.474  -2.388  1.00  0.00     0.132 A 
ATOM     23  N   UNL     1      -2.466  -1.110  -3.583  1.00  0.00    -0.347 N 
ATOM     24  C   UNL     1      -2.114   0.936  -2.357  1.00  0.00     0.047 A 
ATOM     25  C   UNL     1      -2.600  -0.388  -4.731  1.00  0.00     0.084 A 
ATOM     26  H   UNL     1      -2.543  -2.136  -3.611  1.00  0.00     0.167 HD
ATOM     27  C   UNL     1      -2.245   1.639  -3.512  1.00  0.00     0.005 A 
ATOM     28  C   UNL     1      -2.493   0.957  -4.716  1.00  0.00     0.018 A 
ENDBRANCH  10  21
BRANCH   9  29
ATOM     29  C   UNL     1      -4.463   0.783   0.204  1.00  0.00     0.064 A 
ATOM     30  C   UNL     1      -5.224   1.945   0.212  1.00  0.00     0.028 A 
ATOM     31  C   UNL     1      -5.091  -0.454   0.125  1.00  0.00     0.028 A 
ATOM     32  C   UNL     1      -6.601   1.867   0.145  1.00  0.00     0.002 A 
ATOM     33  C   UNL     1      -6.469  -0.525   0.064  1.00  0.00     0.002 A 
ATOM     34  C   UNL     1      -7.223   0.634   0.072  1.00  0.00     0.000 A 
ENDBRANCH   9  29
TORSDOF 3
