REMARK SMILES O=C(C1=C(c2ccc(O)cc2)NO[C@@H]1c1ccccc1)c1ccc(OCN2CCCCC2)cc1
REMARK SMILES IDX 21 1 22 2 23 3 24 4 33 5 34 6 2 7 1 8 3 9 14 10 13 11 12 12
REMARK SMILES IDX 4 13 15 15 18 16 19 17 17 18 20 19 16 20 5 21 11 22 6 23
REMARK SMILES IDX 10 24 7 25 8 26 9 27 25 29 26 30 27 31 32 32 28 33 31 34
REMARK SMILES IDX 29 35 30 36
REMARK H PARENT 12 14 9 28
REMARK Flexibility Score: inf
ROOT
ATOM      1  C   UNL     1      -1.032   4.263   3.836  1.00  0.00     0.023 A 
ATOM      2  C   UNL     1      -0.461   5.424   4.371  1.00  0.00     0.016 A 
ATOM      3  C   UNL     1      -0.453   5.617   5.729  1.00  0.00     0.047 A 
ATOM      4  C   UNL     1      -1.000   4.658   6.574  1.00  0.00     0.121 A 
ATOM      5  C   UNL     1      -1.564   3.501   6.047  1.00  0.00     0.047 A 
ATOM      6  C   UNL     1      -1.582   3.300   4.691  1.00  0.00     0.016 A 
ENDROOT
BRANCH   1   7
ATOM      7  C   UNL     1      -1.049   4.053   2.382  1.00  0.00     0.194 C 
ATOM      8  O   UNL     1      -1.486   3.018   1.924  1.00  0.00    -0.289 OA
BRANCH   7   9
ATOM      9  C   UNL     1      -0.524   5.123   1.460  1.00  0.00     0.062 C 
ATOM     10  C   UNL     1       0.441   6.321   1.291  1.00  0.00     0.215 C 
ATOM     11  O   UNL     1       0.639   6.340  -0.137  1.00  0.00    -0.263 OA
ATOM     12  N   UNL     1      -0.495   5.741  -0.734  1.00  0.00    -0.265 N 
ATOM     13  C   UNL     1      -1.191   5.042   0.100  1.00  0.00     0.078 C 
ATOM     14  H   UNL     1      -0.740   5.851  -1.728  1.00  0.00     0.195 HD
BRANCH  10  15
ATOM     15  C   UNL     1       1.740   6.073   2.013  1.00  0.00    -0.012 A 
ATOM     16  C   UNL     1       4.124   5.618   3.337  1.00  0.00     0.000 A 
ATOM     17  C   UNL     1       3.109   6.319   3.962  1.00  0.00     0.000 A 
ATOM     18  C   UNL     1       3.949   5.150   2.048  1.00  0.00     0.000 A 
ATOM     19  C   UNL     1       1.917   6.546   3.300  1.00  0.00     0.007 A 
ATOM     20  C   UNL     1       2.755   5.372   1.388  1.00  0.00     0.007 A 
ENDBRANCH  10  15
BRANCH  13  21
ATOM     21  C   UNL     1      -2.551   5.511  -0.226  1.00  0.00     0.001 A 
ATOM     22  C   UNL     1      -3.089   5.274  -1.493  1.00  0.00     0.014 A 
ATOM     23  C   UNL     1      -3.307   6.189   0.734  1.00  0.00     0.014 A 
ATOM     24  C   UNL     1      -4.360   5.713  -1.793  1.00  0.00     0.047 A 
ATOM     25  C   UNL     1      -4.575   6.630   0.424  1.00  0.00     0.047 A 
ATOM     26  C   UNL     1      -5.106   6.392  -0.838  1.00  0.00     0.115 A 
BRANCH  26  27
ATOM     27  O   UNL     1      -6.358   6.824  -1.137  1.00  0.00    -0.508 OA
ATOM     28  H   UNL     1      -6.341   7.798  -0.963  1.00  0.00     0.293 HD
ENDBRANCH  26  27
ENDBRANCH  13  21
ENDBRANCH   7   9
ENDBRANCH   1   7
BRANCH   4  29
ATOM     29  O   UNL     1      -0.984   4.852   7.916  1.00  0.00    -0.478 OA
BRANCH  29  30
ATOM     30  C   UNL     1      -1.810   5.898   8.431  1.00  0.00     0.319 C 
BRANCH  30  31
ATOM     31  N   UNL     1      -3.191   5.412   8.561  1.00  0.00    -0.271 NA
ATOM     32  C   UNL     1      -3.924   6.177   9.579  1.00  0.00     0.088 C 
ATOM     33  C   UNL     1      -3.885   5.448   7.268  1.00  0.00     0.088 C 
ATOM     34  C   UNL     1      -5.305   5.553   9.790  1.00  0.00     0.016 C 
ATOM     35  C   UNL     1      -5.265   4.803   7.410  1.00  0.00     0.016 C 
ATOM     36  C   UNL     1      -6.073   5.564   8.465  1.00  0.00     0.003 C 
ENDBRANCH  30  31
ENDBRANCH  29  30
ENDBRANCH   4  29
TORSDOF 8
