REMARK SMILES CCCCn1c(N)c(N(CC(C)C)C(=O)c2nc(Cl)c(Cl)c(Cl)c2Cl)c(=O)[nH]c1=O
REMARK SMILES IDX 5 1 6 2 8 3 26 4 27 5 28 6 29 7 30 8 4 10 3 11 2 12 1 13
REMARK SMILES IDX 7 14 9 17 10 18 11 19 12 20 13 21 14 22 15 23 16 24 17 25
REMARK SMILES IDX 24 26 18 27 22 28 25 29 20 30 19 31 23 32 21 33
REMARK H PARENT 28 9 7 15 7 16
REMARK Flexibility Score: inf
ROOT
ATOM      1  N   UNL     1      -2.340   5.558  -1.439  1.00  0.00    -0.278 N 
ATOM      2  C   UNL     1      -2.256   4.186  -1.376  1.00  0.00     0.137 A 
ATOM      3  C   UNL     1      -1.409   3.604  -0.454  1.00  0.00     0.151 A 
ATOM      4  C   UNL     1      -0.647   4.436   0.388  1.00  0.00     0.279 A 
ATOM      5  O   UNL     1       0.113   3.949   1.208  1.00  0.00    -0.267 OA
ATOM      6  N   UNL     1      -0.762   5.774   0.281  1.00  0.00    -0.272 N 
ATOM      7  C   UNL     1      -1.597   6.323  -0.619  1.00  0.00     0.330 A 
ATOM      8  O   UNL     1      -1.682   7.534  -0.693  1.00  0.00    -0.248 OA
ATOM      9  H   UNL     1      -0.205   6.384   0.897  1.00  0.00     0.175 HD
ENDROOT
BRANCH   1  10
ATOM     10  C   UNL     1      -3.239   6.189  -2.408  1.00  0.00     0.129 C 
BRANCH  10  11
ATOM     11  C   UNL     1      -2.489   6.422  -3.721  1.00  0.00     0.022 C 
BRANCH  11  12
ATOM     12  C   UNL     1      -3.428   7.081  -4.734  1.00  0.00    -0.002 C 
ATOM     13  C   UNL     1      -2.679   7.315  -6.047  1.00  0.00     0.004 C 
ENDBRANCH  11  12
ENDBRANCH  10  11
ENDBRANCH   1  10
BRANCH   2  14
ATOM     14  N   UNL     1      -3.011   3.405  -2.217  1.00  0.00    -0.383 N 
ATOM     15  H   UNL     1      -3.643   3.850  -2.898  1.00  0.00     0.158 HD
ATOM     16  H   UNL     1      -2.946   2.378  -2.167  1.00  0.00     0.158 HD
ENDBRANCH   2  14
BRANCH   3  17
ATOM     17  N   UNL     1      -1.305   2.202  -0.362  1.00  0.00    -0.299 N 
BRANCH  17  18
ATOM     18  C   UNL     1      -2.389   1.425   0.244  1.00  0.00     0.129 C 
BRANCH  18  19
ATOM     19  C   UNL     1      -2.214   1.405   1.764  1.00  0.00     0.003 C 
ATOM     20  C   UNL     1      -3.418   0.714   2.407  1.00  0.00     0.009 C 
ATOM     21  C   UNL     1      -0.937   0.642   2.121  1.00  0.00     0.009 C 
ENDBRANCH  18  19
ENDBRANCH  17  18
BRANCH  17  22
ATOM     22  C   UNL     1      -0.208   1.575  -0.832  1.00  0.00     0.278 C 
ATOM     23  O   UNL     1      -0.158   0.360  -0.839  1.00  0.00    -0.267 OA
BRANCH  22  24
ATOM     24  C   UNL     1       0.938   2.366  -1.333  1.00  0.00     0.150 A 
ATOM     25  N   UNL     1       0.927   3.689  -1.216  1.00  0.00    -0.228 NA
ATOM     26  C   UNL     1       2.024   1.715  -1.918  1.00  0.00     0.092 A 
ATOM     27  C   UNL     1       1.925   4.430  -1.648  1.00  0.00     0.150 A 
ATOM     28  C   UNL     1       3.089   2.471  -2.389  1.00  0.00     0.083 A 
ATOM     29  Cl  UNL     1       2.039  -0.015  -2.063  1.00  0.00    -0.080 Cl
ATOM     30  C   UNL     1       3.035   3.851  -2.247  1.00  0.00     0.098 A 
ATOM     31  Cl  UNL     1       1.852   6.155  -1.467  1.00  0.00    -0.061 Cl
ATOM     32  Cl  UNL     1       4.460   1.708  -3.132  1.00  0.00    -0.081 Cl
ATOM     33  Cl  UNL     1       4.344   4.842  -2.812  1.00  0.00    -0.079 Cl
ENDBRANCH  22  24
ENDBRANCH  17  22
ENDBRANCH   3  17
TORSDOF 9
