REMARK SMILES Cc1ccc(N(C(=O)Cn2nnc3ccccc32)[C@H](C(=O)NC2CCCCC2)c2ccc(O)c(O)c2)cc1
REMARK SMILES IDX 6 1 5 2 1 3 2 4 38 5 3 6 37 7 4 8 19 9 29 10 36 11 30 12
REMARK SMILES IDX 34 13 31 14 32 15 35 16 33 18 20 20 21 21 22 22 23 24 28 25
REMARK SMILES IDX 24 26 27 27 25 28 26 29 7 30 8 31 9 32 10 33 11 34 18 35
REMARK SMILES IDX 12 36 13 37 17 38 14 39 16 40 15 41
REMARK H PARENT 35 17 33 19 22 23
REMARK Flexibility Score: inf
ROOT
ATOM      1  N   UNL     1      -5.204   3.305  -1.876  1.00  0.00    -0.294 N 
ENDROOT
BRANCH   1   2
ATOM      2  C   UNL     1      -5.163   2.130  -1.117  1.00  0.00     0.045 A 
ATOM      3  C   UNL     1      -5.039  -1.459   1.200  1.00  0.00     0.044 C 
ATOM      4  C   UNL     1      -5.083  -0.194   0.383  1.00  0.00    -0.051 A 
ATOM      5  C   UNL     1      -5.769   0.910   0.857  1.00  0.00     0.005 A 
ATOM      6  C   UNL     1      -4.437  -0.139  -0.838  1.00  0.00     0.005 A 
ATOM      7  C   UNL     1      -5.806   2.073   0.113  1.00  0.00     0.026 A 
ATOM      8  C   UNL     1      -4.475   1.020  -1.589  1.00  0.00     0.026 A 
ENDBRANCH   1   2
BRANCH   1   9
ATOM      9  C   UNL     1      -5.967   3.344  -3.125  1.00  0.00     0.210 C 
BRANCH   9  10
ATOM     10  C   UNL     1      -6.487   1.964  -3.439  1.00  0.00    -0.012 A 
ATOM     11  C   UNL     1      -6.148   1.355  -4.633  1.00  0.00     0.056 A 
ATOM     12  C   UNL     1      -7.298   1.309  -2.531  1.00  0.00     0.010 A 
ATOM     13  C   UNL     1      -6.625   0.087  -4.923  1.00  0.00     0.157 A 
ATOM     14  C   UNL     1      -7.782   0.046  -2.817  1.00  0.00     0.050 A 
ATOM     15  C   UNL     1      -7.446  -0.570  -4.011  1.00  0.00     0.157 A 
BRANCH  13  16
ATOM     16  O   UNL     1      -6.293  -0.514  -6.097  1.00  0.00    -0.504 OA
ATOM     17  H   UNL     1      -7.159  -0.731  -6.526  1.00  0.00     0.293 HD
ENDBRANCH  13  16
BRANCH  15  18
ATOM     18  O   UNL     1      -7.916  -1.815  -4.292  1.00  0.00    -0.504 OA
ATOM     19  H   UNL     1      -8.901  -1.736  -4.225  1.00  0.00     0.293 HD
ENDBRANCH  15  18
ENDBRANCH   9  10
BRANCH   9  20
ATOM     20  C   UNL     1      -7.126   4.295  -2.977  1.00  0.00     0.248 C 
ATOM     21  O   UNL     1      -7.297   4.883  -1.930  1.00  0.00    -0.272 OA
ATOM     22  N   UNL     1      -7.972   4.493  -4.007  1.00  0.00    -0.351 N 
ATOM     23  H   UNL     1      -7.827   3.994  -4.896  1.00  0.00     0.163 HD
BRANCH  22  24
ATOM     24  C   UNL     1      -9.099   5.419  -3.862  1.00  0.00     0.082 C 
ATOM     25  C   UNL     1      -9.508   5.943  -5.240  1.00  0.00     0.025 C 
ATOM     26  C   UNL     1     -10.281   4.687  -3.223  1.00  0.00     0.025 C 
ATOM     27  C   UNL     1     -10.684   6.910  -5.089  1.00  0.00     0.002 C 
ATOM     28  C   UNL     1     -11.457   5.654  -3.072  1.00  0.00     0.002 C 
ATOM     29  C   UNL     1     -11.866   6.178  -4.450  1.00  0.00     0.000 C 
ENDBRANCH  22  24
ENDBRANCH   9  20
ENDBRANCH   1   9
BRANCH   1  30
ATOM     30  C   UNL     1      -4.541   4.401  -1.457  1.00  0.00     0.249 C 
ATOM     31  O   UNL     1      -4.648   5.444  -2.065  1.00  0.00    -0.272 OA
BRANCH  30  32
ATOM     32  C   UNL     1      -3.665   4.329  -0.232  1.00  0.00     0.247 C 
BRANCH  32  33
ATOM     33  N   UNL     1      -2.961   5.603  -0.060  1.00  0.00    -0.235 N 
ATOM     34  N   UNL     1      -3.406   6.716   0.667  1.00  0.00    -0.066 NA
ATOM     35  C   UNL     1      -1.735   5.941  -0.580  1.00  0.00     0.089 A 
ATOM     36  N   UNL     1      -2.527   7.653   0.597  1.00  0.00    -0.130 NA
ATOM     37  C   UNL     1      -1.477   7.254  -0.148  1.00  0.00     0.113 A 
ATOM     38  C   UNL     1      -0.808   5.280  -1.379  1.00  0.00     0.030 A 
ATOM     39  C   UNL     1      -0.280   7.875  -0.529  1.00  0.00     0.032 A 
ATOM     40  C   UNL     1       0.354   5.907  -1.733  1.00  0.00     0.002 A 
ATOM     41  C   UNL     1       0.615   7.204  -1.309  1.00  0.00     0.002 A 
ENDBRANCH  32  33
ENDBRANCH  30  32
ENDBRANCH   1  30
TORSDOF 10
