REMARK SMILES C[C@@H](SCc1nc(=O)c2c(-c3ccccc3)csc2[nH]1)C(=O)NC[C@@H](c1ccsc1)[NH+](C)C
REMARK SMILES IDX 1 1 2 2 21 3 22 4 23 5 24 7 25 8 26 9 30 10 27 11 29 12
REMARK SMILES IDX 28 13 31 14 32 15 33 16 3 18 4 19 5 20 20 21 6 22 19 23 7 25
REMARK SMILES IDX 9 26 18 27 8 28 10 29 17 30 11 31 16 32 12 33 15 34 13 35
REMARK SMILES IDX 14 36
REMARK H PARENT 23 6 31 17 20 24
REMARK Flexibility Score: inf
ROOT
ATOM      1  C   UNL     1      -2.142   1.367   4.281  1.00  0.00     0.030 C 
ATOM      2  C   UNL     1      -1.526   2.667   3.761  1.00  0.00     0.133 C 
ENDROOT
BRANCH   2   3
ATOM      3  C   UNL     1      -0.527   2.352   2.677  1.00  0.00     0.233 C 
ATOM      4  O   UNL     1       0.650   2.242   2.950  1.00  0.00    -0.274 OA
ATOM      5  N   UNL     1      -0.942   2.191   1.405  1.00  0.00    -0.349 N 
ATOM      6  H   UNL     1      -1.941   2.283   1.173  1.00  0.00     0.163 HD
BRANCH   5   7
ATOM      7  C   UNL     1       0.029   1.884   0.351  1.00  0.00     0.186 C 
BRANCH   7   8
ATOM      8  C   UNL     1      -0.698   1.752  -0.989  1.00  0.00     0.235 C 
BRANCH   8   9
ATOM      9  C   UNL     1       0.280   1.317  -2.050  1.00  0.00     0.022 A 
ATOM     10  C   UNL     1       1.079   0.240  -1.849  1.00  0.00     0.074 A 
ATOM     11  C   UNL     1       0.371   2.006  -3.245  1.00  0.00     0.021 A 
ATOM     12  S   UNL     1       2.005   0.178  -3.373  1.00  0.00    -0.152 S 
ATOM     13  C   UNL     1       1.265   1.591  -4.176  1.00  0.00     0.065 A 
ENDBRANCH   8   9
BRANCH   8  14
ATOM     14  N   UNL     1      -1.768   0.754  -0.870  1.00  0.00    -0.332 N 
ATOM     15  C   UNL     1      -2.618   0.746  -2.068  1.00  0.00     0.333 C 
ATOM     16  C   UNL     1      -1.215  -0.582  -0.608  1.00  0.00     0.333 C 
ATOM     17  H   UNL     1      -2.357   1.015  -0.066  1.00  0.00     0.348 HD
ENDBRANCH   8  14
ENDBRANCH   7   8
ENDBRANCH   5   7
ENDBRANCH   2   3
BRANCH   2  18
ATOM     18  S   UNL     1      -0.689   3.527   5.122  1.00  0.00    -0.141 SA
BRANCH  18  19
ATOM     19  C   UNL     1      -2.035   3.965   6.257  1.00  0.00     0.145 C 
BRANCH  19  20
ATOM     20  C   UNL     1      -1.469   4.695   7.448  1.00  0.00     0.121 A 
ATOM     21  N   UNL     1      -0.182   4.904   7.521  1.00  0.00    -0.334 N 
ATOM     22  N   UNL     1      -2.306   5.119   8.429  1.00  0.00    -0.195 NA
ATOM     23  C   UNL     1       0.350   5.550   8.555  1.00  0.00     0.107 A 
ATOM     24  H   UNL     1       0.431   4.564   6.766  1.00  0.00     0.169 HD
ATOM     25  C   UNL     1      -1.841   5.774   9.510  1.00  0.00     0.282 A 
ATOM     26  C   UNL     1      -0.436   6.024   9.618  1.00  0.00     0.084 A 
ATOM     27  S   UNL     1       1.999   6.022   9.008  1.00  0.00    -0.125 S 
ATOM     28  O   UNL     1      -2.606   6.147  10.383  1.00  0.00    -0.267 OA
ATOM     29  C   UNL     1       0.301   6.704  10.677  1.00  0.00     0.007 A 
ATOM     30  C   UNL     1       1.645   6.824  10.561  1.00  0.00     0.076 A 
BRANCH  29  31
ATOM     31  C   UNL     1      -0.408   7.254  11.857  1.00  0.00    -0.017 A 
ATOM     32  C   UNL     1       0.042   6.959  13.143  1.00  0.00     0.009 A 
ATOM     33  C   UNL     1      -1.522   8.073  11.685  1.00  0.00     0.009 A 
ATOM     34  C   UNL     1      -0.621   7.474  14.238  1.00  0.00     0.001 A 
ATOM     35  C   UNL     1      -2.181   8.578  12.787  1.00  0.00     0.001 A 
ATOM     36  C   UNL     1      -1.730   8.282  14.061  1.00  0.00     0.000 A 
ENDBRANCH  29  31
ENDBRANCH  19  20
ENDBRANCH  18  19
ENDBRANCH   2  18
TORSDOF 9
