REMARK SMILES O=C(c1nc(-c2cccs2)n(-c2cccc(C(F)(F)F)c2)n1)N1CCC[C@@H]1c1cccnc1
REMARK SMILES IDX 11 1 5 2 4 3 3 4 22 5 12 6 14 7 13 8 15 9 16 10 21 11 17 12
REMARK SMILES IDX 18 13 19 14 20 15 6 16 10 17 7 18 9 19 8 20 2 21 1 22 23 23
REMARK SMILES IDX 27 24 24 25 26 26 25 27 28 28 33 29 29 30 32 31 30 32 31 33
REMARK H PARENT
REMARK Flexibility Score: inf
ROOT
ATOM      1  N   UNL     1      -0.017   1.400   0.010  1.00  0.00    -0.212 N 
ATOM      2  C   UNL     1       1.289   1.801  -0.001  1.00  0.00     0.174 A 
ATOM      3  N   UNL     1       2.042   0.721  -0.014  1.00  0.00    -0.201 NA
ATOM      4  C   UNL     1       1.267  -0.372  -0.012  1.00  0.00     0.240 A 
ATOM      5  N   UNL     1       0.002  -0.004   0.002  1.00  0.00    -0.140 NA
ENDROOT
BRANCH   1   6
ATOM      6  C   UNL     1      -1.148   2.225   0.020  1.00  0.00     0.068 A 
ATOM      7  C   UNL     1      -2.245   4.238   0.723  1.00  0.00     0.003 A 
ATOM      8  C   UNL     1      -1.127   3.427   0.715  1.00  0.00     0.028 A 
ATOM      9  C   UNL     1      -3.384   3.854   0.039  1.00  0.00     0.013 A 
ATOM     10  C   UNL     1      -3.408   2.659  -0.654  1.00  0.00     0.058 A 
ATOM     11  C   UNL     1      -2.292   1.845  -0.670  1.00  0.00     0.041 A 
BRANCH  10  12
ATOM     12  C   UNL     1      -4.652   2.245  -1.398  1.00  0.00     0.416 C 
ATOM     13  F   UNL     1      -5.638   3.225  -1.241  1.00  0.00    -0.166 F 
ATOM     14  F   UNL     1      -4.354   2.097  -2.757  1.00  0.00    -0.166 F 
ATOM     15  F   UNL     1      -5.118   1.029  -0.888  1.00  0.00    -0.166 F 
ENDBRANCH  10  12
ENDBRANCH   1   6
BRANCH   2  16
ATOM     16  C   UNL     1       1.769   3.192   0.002  1.00  0.00     0.072 A 
ATOM     17  S   UNL     1       0.867   4.694  -0.339  1.00  0.00    -0.140 S 
ATOM     18  C   UNL     1       3.025   3.673   0.274  1.00  0.00     0.024 A 
ATOM     19  C   UNL     1       2.207   5.852  -0.109  1.00  0.00     0.065 A 
ATOM     20  C   UNL     1       3.242   5.030   0.209  1.00  0.00     0.012 A 
ENDBRANCH   2  16
BRANCH   4  21
ATOM     21  C   UNL     1       1.753  -1.768  -0.025  1.00  0.00     0.294 C 
ATOM     22  O   UNL     1       0.959  -2.688  -0.023  1.00  0.00    -0.265 OA
BRANCH  21  23
ATOM     23  N   UNL     1       3.077  -2.020  -0.039  1.00  0.00    -0.329 N 
ATOM     24  C   UNL     1       3.695  -3.354  -0.053  1.00  0.00     0.117 C 
ATOM     25  C   UNL     1       4.146  -1.004  -0.049  1.00  0.00     0.120 C 
ATOM     26  C   UNL     1       5.225  -3.151  -0.039  1.00  0.00     0.032 C 
ATOM     27  C   UNL     1       5.381  -1.725   0.552  1.00  0.00     0.024 C 
BRANCH  24  28
ATOM     28  C   UNL     1       3.287  -4.095  -1.300  1.00  0.00    -0.007 A 
ATOM     29  C   UNL     1       3.180  -3.429  -2.506  1.00  0.00     0.116 A 
ATOM     30  C   UNL     1       3.021  -5.455  -1.253  1.00  0.00     0.009 A 
ATOM     31  N   UNL     1       2.824  -4.071  -3.602  1.00  0.00    -0.264 NA
ATOM     32  C   UNL     1       2.645  -6.095  -2.425  1.00  0.00     0.020 A 
ATOM     33  C   UNL     1       2.558  -5.362  -3.594  1.00  0.00     0.111 A 
ENDBRANCH  24  28
ENDBRANCH  21  23
ENDBRANCH   4  21
TORSDOF 6
