REMARK SMILES O=C(Nc1cc(C2CC2)nn1-c1nc(-c2ccccc2)cc(=O)[nH]1)C1c2ccccc2Oc2ccccc21
REMARK SMILES IDX 11 1 4 2 5 3 6 4 10 5 12 6 14 7 13 8 21 9 22 10 24 11 23 12
REMARK SMILES IDX 15 14 18 15 19 16 17 17 20 18 16 19 3 20 2 21 1 23 25 24
REMARK SMILES IDX 38 25 26 26 33 27 37 28 31 29 27 30 32 31 34 32 36 33 30 34
REMARK SMILES IDX 28 35 35 36 29 37 7 38 9 39 8 40
REMARK H PARENT 24 13 3 22
REMARK Flexibility Score: inf
ROOT
ATOM      1  N   UNL     1       2.159   4.279   3.382  1.00  0.00    -0.183 N 
ATOM      2  C   UNL     1       1.065   3.479   3.539  1.00  0.00     0.139 A 
ATOM      3  C   UNL     1       0.013   4.285   3.844  1.00  0.00     0.073 A 
ATOM      4  C   UNL     1       0.475   5.605   3.869  1.00  0.00     0.068 A 
ATOM      5  N   UNL     1       1.753   5.603   3.590  1.00  0.00    -0.168 NA
ENDROOT
BRANCH   1   6
ATOM      6  C   UNL     1       3.439   3.857   3.071  1.00  0.00     0.233 A 
ATOM      7  C   UNL     1       4.919   2.118   2.701  1.00  0.00     0.080 A 
ATOM      8  N   UNL     1       3.692   2.571   3.000  1.00  0.00    -0.212 NA
ATOM      9  C   UNL     1       5.944   3.020   2.462  1.00  0.00     0.100 A 
ATOM     10  C   UNL     1       5.663   4.394   2.540  1.00  0.00     0.252 A 
ATOM     11  N   UNL     1       4.406   4.785   2.840  1.00  0.00    -0.291 N 
ATOM     12  O   UNL     1       6.538   5.220   2.335  1.00  0.00    -0.269 OA
ATOM     13  H   UNL     1       4.179   5.788   2.893  1.00  0.00     0.173 HD
BRANCH   7  14
ATOM     14  C   UNL     1       5.177   0.661   2.627  1.00  0.00     0.000 A 
ATOM     15  C   UNL     1       5.660  -2.062   2.488  1.00  0.00     0.000 A 
ATOM     16  C   UNL     1       6.540  -1.240   3.169  1.00  0.00     0.001 A 
ATOM     17  C   UNL     1       4.539  -1.528   1.876  1.00  0.00     0.001 A 
ATOM     18  C   UNL     1       6.307   0.119   3.237  1.00  0.00     0.010 A 
ATOM     19  C   UNL     1       4.293  -0.172   1.942  1.00  0.00     0.010 A 
ENDBRANCH   7  14
ENDBRANCH   1   6
BRANCH   2  20
ATOM     20  N   UNL     1       1.032   2.092   3.415  1.00  0.00    -0.310 N 
ATOM     21  C   UNL     1      -0.098   1.416   3.703  1.00  0.00     0.237 C 
ATOM     22  H   UNL     1       1.871   1.583   3.103  1.00  0.00     0.171 HD
ATOM     23  O   UNL     1      -1.108   2.020   3.995  1.00  0.00    -0.274 OA
BRANCH  21  24
ATOM     24  C   UNL     1      -0.107  -0.091   3.657  1.00  0.00     0.146 C 
ATOM     25  C   UNL     1      -0.821  -0.620   4.871  1.00  0.00     0.012 A 
ATOM     26  C   UNL     1      -0.798  -0.544   2.400  1.00  0.00     0.012 A 
ATOM     27  C   UNL     1      -2.122  -1.086   4.781  1.00  0.00     0.131 A 
ATOM     28  C   UNL     1      -0.164  -0.640   6.088  1.00  0.00     0.009 A 
ATOM     29  C   UNL     1      -2.100  -1.012   2.435  1.00  0.00     0.131 A 
ATOM     30  C   UNL     1      -0.118  -0.491   1.195  1.00  0.00     0.009 A 
ATOM     31  O   UNL     1      -2.787  -1.075   3.601  1.00  0.00    -0.457 OA
ATOM     32  C   UNL     1      -2.761  -1.571   5.916  1.00  0.00     0.047 A 
ATOM     33  C   UNL     1      -0.802  -1.122   7.215  1.00  0.00     0.001 A 
ATOM     34  C   UNL     1      -2.718  -1.424   1.260  1.00  0.00     0.047 A 
ATOM     35  C   UNL     1      -0.736  -0.902   0.029  1.00  0.00     0.001 A 
ATOM     36  C   UNL     1      -2.101  -1.589   7.128  1.00  0.00     0.004 A 
ATOM     37  C   UNL     1      -2.037  -1.368   0.063  1.00  0.00     0.004 A 
ENDBRANCH  21  24
ENDBRANCH   2  20
BRANCH   4  38
ATOM     38  C   UNL     1      -0.358   6.824   4.166  1.00  0.00     0.040 C 
ATOM     39  C   UNL     1      -1.134   7.451   3.005  1.00  0.00     0.011 C 
ATOM     40  C   UNL     1      -1.879   6.675   4.094  1.00  0.00     0.011 C 
ENDBRANCH   4  38
TORSDOF 5
