REMARK SMILES O=C(C[N@@H+]1CC[C@H]2CCCC[C@@H]2C1)N[C@@H](c1ccccc1)c1ccc2[nH]cnc2c1
REMARK SMILES IDX 14 1 2 2 1 3 15 5 16 6 19 7 20 8 18 9 21 10 17 11 22 12
REMARK SMILES IDX 30 13 23 14 29 15 24 16 25 17 28 18 26 19 27 20 3 22 4 23
REMARK SMILES IDX 13 24 5 25 12 27 6 28 7 29 11 30 8 31 10 32 9 33
REMARK H PARENT 14 4 26 21 4 26
REMARK Flexibility Score: inf
ROOT
ATOM      1  N   UNL     1       0.900  -0.810   6.045  1.00  0.00    -0.340 N 
ATOM      2  C   UNL     1       0.237  -0.269   5.004  1.00  0.00     0.275 C 
ATOM      3  O   UNL     1      -0.199  -0.983   4.125  1.00  0.00    -0.268 OA
ATOM      4  H   UNL     1       1.270  -0.203   6.791  1.00  0.00     0.164 HD
ENDROOT
BRANCH   1   5
ATOM      5  C   UNL     1       1.094  -2.260   6.115  1.00  0.00     0.143 C 
BRANCH   5   6
ATOM      6  C   UNL     1       2.318  -2.642   5.324  1.00  0.00    -0.021 A 
ATOM      7  C   UNL     1       4.563  -3.342   3.870  1.00  0.00     0.000 A 
ATOM      8  C   UNL     1       4.571  -2.197   4.645  1.00  0.00     0.000 A 
ATOM      9  C   UNL     1       3.433  -4.137   3.823  1.00  0.00     0.000 A 
ATOM     10  C   UNL     1       3.446  -1.845   5.367  1.00  0.00     0.006 A 
ATOM     11  C   UNL     1       2.311  -3.787   4.549  1.00  0.00     0.006 A 
ENDBRANCH   5   6
BRANCH   5  12
ATOM     12  C   UNL     1       1.277  -2.673   7.553  1.00  0.00    -0.019 A 
ATOM     13  C   UNL     1       0.694  -3.822   8.006  1.00  0.00     0.036 A 
ATOM     14  C   UNL     1       2.040  -1.884   8.402  1.00  0.00     0.008 A 
ATOM     15  C   UNL     1       0.861  -4.210   9.338  1.00  0.00     0.089 A 
ATOM     16  C   UNL     1       2.213  -2.243   9.722  1.00  0.00     0.029 A 
ATOM     17  C   UNL     1       1.629  -3.409  10.200  1.00  0.00     0.065 A 
ATOM     18  N   UNL     1       0.421  -5.267  10.068  1.00  0.00    -0.237 NA
ATOM     19  N   UNL     1       1.609  -4.041  11.427  1.00  0.00    -0.345 N 
ATOM     20  C   UNL     1       0.859  -5.168  11.289  1.00  0.00     0.197 A 
ATOM     21  H   UNL     1       2.075  -3.719  12.287  1.00  0.00     0.168 HD
ENDBRANCH   5  12
ENDBRANCH   1   5
BRANCH   2  22
ATOM     22  C   UNL     1       0.037   1.223   4.931  1.00  0.00     0.363 C 
BRANCH  22  23
ATOM     23  N   UNL     1      -0.709   1.558   3.711  1.00  0.00    -0.327 N 
ATOM     24  C   UNL     1       0.001   1.088   2.514  1.00  0.00     0.266 C 
ATOM     25  C   UNL     1      -2.076   1.025   3.766  1.00  0.00     0.262 C 
ATOM     26  H   UNL     1      -0.777   2.584   3.650  1.00  0.00     0.348 HD
ATOM     27  C   UNL     1      -0.730   1.580   1.265  1.00  0.00     0.047 C 
ATOM     28  C   UNL     1      -2.868   1.508   2.548  1.00  0.00     0.065 C 
ATOM     29  C   UNL     1      -2.163   1.037   1.274  1.00  0.00     0.003 C 
ATOM     30  C   UNL     1      -0.013   1.086   0.008  1.00  0.00     0.010 C 
ATOM     31  C   UNL     1      -2.907   1.554   0.043  1.00  0.00     0.004 C 
ATOM     32  C   UNL     1      -0.755   1.594  -1.231  1.00  0.00     0.001 C 
ATOM     33  C   UNL     1      -2.192   1.070  -1.221  1.00  0.00     0.000 C 
ENDBRANCH  22  23
ENDBRANCH   2  22
TORSDOF 5
