REMARK SMILES Cc1ccc2nc(CSc3n[nH]c(N/N=C/c4ccc(OCc5c(C)cccc5Cl)o4)n3)[nH]c2c1
REMARK SMILES IDX 15 1 16 2 14 3 13 5 10 6 11 7 32 8 12 9 9 11 8 12 7 13 1 14
REMARK SMILES IDX 2 15 3 16 35 17 4 18 34 19 5 20 33 21 6 22 17 24 31 25 18 26
REMARK SMILES IDX 20 27 19 28 21 29 22 30 23 31 29 32 24 33 28 34 30 35 26 36
REMARK SMILES IDX 25 37 27 38
REMARK H PARENT 14 4 12 10 33 23
REMARK Flexibility Score: inf
ROOT
ATOM      1  N   UNL     1      -1.081   3.514   0.033  1.00  0.00    -0.177 NA
ATOM      2  C   UNL     1      -2.150   4.257   0.044  1.00  0.00     0.180 C 
ENDROOT
BRANCH   1   3
ATOM      3  N   UNL     1      -1.198   2.118   0.028  1.00  0.00    -0.245 N 
ATOM      4  H   UNL     1      -2.130   1.679   0.033  1.00  0.00     0.193 HD
BRANCH   3   5
ATOM      5  C   UNL     1      -0.059   1.327   0.015  1.00  0.00     0.240 A 
ATOM      6  C   UNL     1       1.278  -0.435  -0.008  1.00  0.00     0.210 A 
ATOM      7  N   UNL     1       2.026   0.642  -0.013  1.00  0.00    -0.145 NA
ATOM      8  N   UNL     1      -0.030  -0.040   0.009  1.00  0.00    -0.184 NA
ATOM      9  N   UNL     1       1.179   1.758   0.002  1.00  0.00    -0.243 N 
ATOM     10  H   UNL     1       1.477   2.744   0.003  1.00  0.00     0.194 HD
BRANCH   6  11
ATOM     11  S   UNL     1       1.858  -2.099  -0.022  1.00  0.00    -0.076 SA
BRANCH  11  12
ATOM     12  C   UNL     1       3.664  -1.934  -0.043  1.00  0.00     0.153 C 
BRANCH  12  13
ATOM     13  C   UNL     1       4.293  -3.303  -0.057  1.00  0.00     0.117 A 
ATOM     14  C   UNL     1       6.674  -8.534   1.443  1.00  0.00     0.044 C 
ATOM     15  C   UNL     1       6.137  -7.356   0.671  1.00  0.00    -0.049 A 
ATOM     16  C   UNL     1       6.139  -7.385  -0.717  1.00  0.00     0.006 A 
ATOM     17  C   UNL     1       5.652  -6.271   1.344  1.00  0.00     0.031 A 
ATOM     18  C   UNL     1       5.651  -6.317  -1.439  1.00  0.00     0.031 A 
ATOM     19  C   UNL     1       5.152  -5.176   0.633  1.00  0.00     0.066 A 
ATOM     20  C   UNL     1       5.155  -5.205  -0.772  1.00  0.00     0.089 A 
ATOM     21  N   UNL     1       4.618  -3.985   1.003  1.00  0.00    -0.341 N 
ATOM     22  N   UNL     1       4.610  -4.004  -1.179  1.00  0.00    -0.233 NA
ATOM     23  H   UNL     1       4.488  -3.668   1.975  1.00  0.00     0.168 HD
ENDBRANCH  12  13
ENDBRANCH  11  12
ENDBRANCH   6  11
ENDBRANCH   3   5
ENDBRANCH   1   3
BRANCH   2  24
ATOM     24  C   UNL     1      -2.028   5.716   0.049  1.00  0.00     0.151 A 
ATOM     25  O   UNL     1      -0.872   6.415   0.049  1.00  0.00    -0.425 OA
ATOM     26  C   UNL     1      -3.062   6.607   0.061  1.00  0.00     0.056 A 
ATOM     27  C   UNL     1      -1.146   7.730   0.052  1.00  0.00     0.285 A 
ATOM     28  C   UNL     1      -2.492   7.893   0.063  1.00  0.00     0.093 A 
BRANCH  27  29
ATOM     29  O   UNL     1      -0.228   8.729   0.051  1.00  0.00    -0.460 OA
BRANCH  29  30
ATOM     30  C   UNL     1       1.148   8.346   0.039  1.00  0.00     0.270 C 
BRANCH  30  31
ATOM     31  C   UNL     1       2.014   9.580   0.039  1.00  0.00     0.011 A 
ATOM     32  C   UNL     1       2.407  10.148  -1.159  1.00  0.00     0.047 A 
ATOM     33  C   UNL     1       2.419  10.140   1.236  1.00  0.00    -0.043 A 
ATOM     34  C   UNL     1       3.196  11.285  -1.159  1.00  0.00     0.021 A 
ATOM     35  Cl  UNL     1       1.905   9.441  -2.663  1.00  0.00    -0.084 Cl
ATOM     36  C   UNL     1       3.212  11.272   1.236  1.00  0.00     0.004 A 
ATOM     37  C   UNL     1       1.996   9.517   2.541  1.00  0.00     0.045 C 
ATOM     38  C   UNL     1       3.600  11.845   0.038  1.00  0.00     0.002 A 
ENDBRANCH  30  31
ENDBRANCH  29  30
ENDBRANCH  27  29
ENDBRANCH   2  24
TORSDOF 9
