REMARK SMILES Cc1cccc(N[C@@H](C)c2nnc(S[C@@H](C)C(=O)Nc3ccc(C#N)cc3)n2-c2ccccc2)c1C
REMARK SMILES IDX 14 1 13 2 10 3 28 4 11 5 12 6 8 7 9 8 7 9 6 11 1 12 2 13
REMARK SMILES IDX 35 14 3 15 36 16 4 17 5 18 29 19 34 20 30 21 33 22 31 23
REMARK SMILES IDX 32 24 15 25 16 26 17 27 18 28 19 29 20 31 27 32 21 33 26 34
REMARK SMILES IDX 22 35 23 36 24 37 25 38
REMARK H PARENT 7 10 19 30
REMARK Flexibility Score: inf
ROOT
ATOM      1  S   UNL     1      -1.472   2.356   0.424  1.00  0.00    -0.073 SA
ENDROOT
BRANCH   1   2
ATOM      2  C   UNL     1      -0.042   1.329   0.354  1.00  0.00     0.196 A 
ATOM      3  C   UNL     1       1.306  -0.386   0.353  1.00  0.00     0.160 A 
ATOM      4  N   UNL     1      -0.012  -0.033   0.480  1.00  0.00    -0.272 N 
ATOM      5  N   UNL     1       1.984   0.710   0.166  1.00  0.00    -0.132 NA
ATOM      6  N   UNL     1       1.195   1.725   0.166  1.00  0.00    -0.123 NA
BRANCH   3   7
ATOM      7  C   UNL     1       1.866  -1.784   0.418  1.00  0.00     0.145 C 
ATOM      8  C   UNL     1       2.567  -1.990   1.762  1.00  0.00     0.039 C 
BRANCH   7   9
ATOM      9  N   UNL     1       2.829  -1.975  -0.669  1.00  0.00    -0.375 N 
ATOM     10  H   UNL     1       3.314  -1.162  -1.077  1.00  0.00     0.161 HD
BRANCH   9  11
ATOM     11  C   UNL     1       3.090  -3.258  -1.154  1.00  0.00     0.038 A 
ATOM     12  C   UNL     1       5.249  -4.911  -3.780  1.00  0.00     0.044 C 
ATOM     13  C   UNL     1       4.258  -4.712  -2.662  1.00  0.00    -0.046 A 
ATOM     14  C   UNL     1       4.003  -3.441  -2.185  1.00  0.00    -0.025 A 
ATOM     15  C   UNL     1       3.606  -5.801  -2.114  1.00  0.00     0.004 A 
ATOM     16  C   UNL     1       4.714  -2.254  -2.783  1.00  0.00     0.047 C 
ATOM     17  C   UNL     1       2.697  -5.623  -1.088  1.00  0.00     0.002 A 
ATOM     18  C   UNL     1       2.441  -4.356  -0.603  1.00  0.00     0.026 A 
ENDBRANCH   9  11
ENDBRANCH   7   9
ENDBRANCH   3   7
BRANCH   4  19
ATOM     19  C   UNL     1      -1.102  -0.889   0.693  1.00  0.00     0.049 A 
ATOM     20  C   UNL     1      -2.087  -1.017  -0.277  1.00  0.00     0.027 A 
ATOM     21  C   UNL     1      -1.195  -1.615   1.873  1.00  0.00     0.027 A 
ATOM     22  C   UNL     1      -3.159  -1.861  -0.064  1.00  0.00     0.002 A 
ATOM     23  C   UNL     1      -2.272  -2.454   2.083  1.00  0.00     0.002 A 
ATOM     24  C   UNL     1      -3.252  -2.579   1.115  1.00  0.00     0.000 A 
ENDBRANCH   4  19
ENDBRANCH   1   2
BRANCH   1  25
ATOM     25  C   UNL     1      -0.706   3.978   0.181  1.00  0.00     0.141 C 
ATOM     26  C   UNL     1      -0.094   4.048  -1.220  1.00  0.00     0.030 C 
BRANCH  25  27
ATOM     27  C   UNL     1      -1.751   5.054   0.326  1.00  0.00     0.237 C 
ATOM     28  O   UNL     1      -2.926   4.778   0.207  1.00  0.00    -0.273 OA
ATOM     29  N   UNL     1      -1.380   6.322   0.588  1.00  0.00    -0.325 N 
ATOM     30  H   UNL     1      -0.390   6.543   0.770  1.00  0.00     0.169 HD
BRANCH  29  31
ATOM     31  C   UNL     1      -2.337   7.338   0.614  1.00  0.00     0.041 A 
ATOM     32  C   UNL     1      -2.189   8.408   1.490  1.00  0.00     0.027 A 
ATOM     33  C   UNL     1      -3.433   7.281  -0.241  1.00  0.00     0.027 A 
ATOM     34  C   UNL     1      -3.131   9.412   1.518  1.00  0.00     0.021 A 
ATOM     35  C   UNL     1      -4.381   8.279  -0.215  1.00  0.00     0.021 A 
ATOM     36  C   UNL     1      -4.236   9.355   0.664  1.00  0.00     0.052 A 
BRANCH  36  37
ATOM     37  C   UNL     1      -5.218  10.398   0.691  1.00  0.00     0.099 C 
ATOM     38  N   UNL     1      -5.997  11.225   0.712  1.00  0.00    -0.192 NA
ENDBRANCH  36  37
ENDBRANCH  29  31
ENDBRANCH  25  27
ENDBRANCH   1  25
TORSDOF 9
