REMARK SMILES Cc1cc(C)c(-c2cc([C@@H](O)[C@@H]3O[C@H]4OC(C)(C)O[C@@H]4[C@H]3O)on2)c(C)c1
REMARK SMILES IDX 10 1 9 2 7 3 24 4 8 5 23 6 6 7 1 8 2 9 3 10 27 11 4 12 25 13
REMARK SMILES IDX 5 14 26 15 12 16 13 17 21 18 14 19 20 20 15 21 19 22 16 23
REMARK SMILES IDX 17 24 18 25 22 26 11 28
REMARK H PARENT 22 27 11 29
REMARK Flexibility Score: inf
ROOT
ATOM      1  C   UNL     1      -0.420  -0.883   2.970  1.00  0.00     0.215 C 
ENDROOT
BRANCH   1   2
ATOM      2  C   UNL     1      -1.558  -0.306   3.771  1.00  0.00     0.168 A 
ATOM      3  C   UNL     1      -2.819   0.628   5.294  1.00  0.00     0.114 A 
ATOM      4  N   UNL     1      -3.532   0.274   4.253  1.00  0.00    -0.079 NA
ATOM      5  C   UNL     1      -1.479   0.251   5.001  1.00  0.00     0.080 A 
ATOM      6  O   UNL     1      -2.845  -0.239   3.401  1.00  0.00    -0.358 OA
BRANCH   3   7
ATOM      7  C   UNL     1      -3.311   1.290   6.528  1.00  0.00     0.010 A 
ATOM      8  C   UNL     1      -4.726   3.195  10.084  1.00  0.00     0.044 C 
ATOM      9  C   UNL     1      -4.227   2.524   8.831  1.00  0.00    -0.051 A 
ATOM     10  C   UNL     1      -4.594   3.017   7.592  1.00  0.00     0.007 A 
ATOM     11  C   UNL     1      -3.403   1.416   8.924  1.00  0.00     0.007 A 
ATOM     12  C   UNL     1      -4.135   2.409   6.441  1.00  0.00    -0.041 A 
ATOM     13  C   UNL     1      -2.944   0.797   7.779  1.00  0.00    -0.041 A 
ATOM     14  C   UNL     1      -4.531   2.952   5.092  1.00  0.00     0.045 C 
ATOM     15  C   UNL     1      -2.047  -0.409   7.881  1.00  0.00     0.045 C 
ENDBRANCH   3   7
ENDBRANCH   1   2
BRANCH   1  16
ATOM     16  C   UNL     1       0.117   0.179   2.009  1.00  0.00     0.189 C 
ATOM     17  O   UNL     1      -0.952   0.663   1.133  1.00  0.00    -0.340 OA
ATOM     18  C   UNL     1       1.210  -0.442   1.085  1.00  0.00     0.180 C 
ATOM     19  C   UNL     1      -0.671   0.165  -0.131  1.00  0.00     0.285 C 
ATOM     20  C   UNL     1       0.902   0.285  -0.237  1.00  0.00     0.209 C 
ATOM     21  O   UNL     1      -1.065   0.593  -1.395  1.00  0.00    -0.319 OA
ATOM     22  O   UNL     1       1.036  -0.455  -1.458  1.00  0.00    -0.339 OA
ATOM     23  C   UNL     1      -0.022   0.115  -2.281  1.00  0.00     0.166 C 
ATOM     24  C   UNL     1       0.535   1.273  -3.111  1.00  0.00     0.075 C 
ATOM     25  C   UNL     1      -0.593  -0.960  -3.208  1.00  0.00     0.075 C 
BRANCH  18  26
ATOM     26  O   UNL     1       2.522  -0.129   1.554  1.00  0.00    -0.387 OA
ATOM     27  H   UNL     1       2.624  -0.484   2.473  1.00  0.00     0.211 HD
ENDBRANCH  18  26
ENDBRANCH   1  16
BRANCH   1  28
ATOM     28  O   UNL     1      -0.887  -2.009   2.224  1.00  0.00    -0.382 OA
ATOM     29  H   UNL     1      -1.609  -1.724   1.610  1.00  0.00     0.211 HD
ENDBRANCH   1  28
TORSDOF 5
