REMARK SMILES Cc1nc2nc(C(F)(F)F)nn2c(C)c1CCC(=O)NNC(=S)N[C@@H]1CCC[C@@H](C)[C@H]1C
REMARK SMILES IDX 18 1 19 2 20 3 17 5 16 6 15 7 1 8 2 9 3 10 4 11 13 12 12 13
REMARK SMILES IDX 5 14 14 15 11 16 6 17 7 18 8 19 9 20 10 21 21 22 22 24 23 25
REMARK SMILES IDX 24 26 25 28 31 29 26 30 29 31 32 32 27 33 28 34 30 35
REMARK H PARENT 20 4 21 23 24 27
REMARK Flexibility Score: inf
ROOT
ATOM      1  C   UNL     1      -0.742   1.585  -1.213  1.00  0.00     0.238 C 
ATOM      2  O   UNL     1      -1.736   2.268  -1.088  1.00  0.00    -0.273 OA
ATOM      3  N   UNL     1      -0.288   1.272  -2.443  1.00  0.00    -0.268 N 
ATOM      4  H   UNL     1       0.556   0.692  -2.549  1.00  0.00     0.191 HD
ENDROOT
BRANCH   1   5
ATOM      5  C   UNL     1      -0.013   1.086   0.008  1.00  0.00     0.107 C 
BRANCH   5   6
ATOM      6  C   UNL     1      -0.729   1.579   1.267  1.00  0.00     0.049 C 
BRANCH   6   7
ATOM      7  C   UNL     1       0.000   1.080   2.488  1.00  0.00    -0.005 A 
ATOM      8  C   UNL     1      -1.452  -0.975   2.465  1.00  0.00     0.067 C 
ATOM      9  C   UNL     1      -0.345  -0.148   3.066  1.00  0.00     0.046 A 
ATOM     10  N   UNL     1       0.294  -0.584   4.127  1.00  0.00    -0.216 NA
ATOM     11  C   UNL     1       1.276   0.137   4.681  1.00  0.00     0.253 A 
ATOM     12  C   UNL     1       0.995   1.818   3.043  1.00  0.00     0.048 A 
ATOM     13  N   UNL     1       1.634   1.341   4.144  1.00  0.00    -0.201 N 
ATOM     14  N   UNL     1       2.058  -0.072   5.735  1.00  0.00    -0.185 NA
ATOM     15  C   UNL     1       1.387   3.146   2.447  1.00  0.00     0.067 C 
ATOM     16  N   UNL     1       2.675   1.836   4.942  1.00  0.00    -0.140 NA
ATOM     17  C   UNL     1       2.891   0.949   5.884  1.00  0.00     0.257 A 
BRANCH  17  18
ATOM     18  C   UNL     1       3.928   1.071   6.970  1.00  0.00     0.453 C 
ATOM     19  F   UNL     1       3.302   1.392   8.179  1.00  0.00    -0.163 F 
ATOM     20  F   UNL     1       4.608  -0.144   7.106  1.00  0.00    -0.163 F 
ATOM     21  F   UNL     1       4.838   2.079   6.635  1.00  0.00    -0.163 F 
ENDBRANCH  17  18
ENDBRANCH   6   7
ENDBRANCH   5   6
ENDBRANCH   1   5
BRANCH   3  22
ATOM     22  N   UNL     1      -0.966   1.736  -3.578  1.00  0.00    -0.274 N 
ATOM     23  H   UNL     1      -1.811   2.317  -3.472  1.00  0.00     0.190 HD
BRANCH  22  24
ATOM     24  C   UNL     1      -0.513   1.424  -4.808  1.00  0.00     0.185 C 
ATOM     25  S   UNL     1      -1.341   1.991  -6.195  1.00  0.00    -0.039 S 
BRANCH  24  26
ATOM     26  N   UNL     1       0.592   0.664  -4.947  1.00  0.00    -0.358 N 
ATOM     27  H   UNL     1       1.090   0.323  -4.112  1.00  0.00     0.163 HD
BRANCH  26  28
ATOM     28  C   UNL     1       1.085   0.325  -6.284  1.00  0.00     0.084 C 
ATOM     29  C   UNL     1       2.585   0.034  -6.216  1.00  0.00     0.011 C 
ATOM     30  C   UNL     1       0.348  -0.913  -6.799  1.00  0.00     0.025 C 
ATOM     31  C   UNL     1       3.099  -0.322  -7.612  1.00  0.00    -0.009 C 
ATOM     32  C   UNL     1       3.322   1.271  -5.700  1.00  0.00     0.010 C 
ATOM     33  C   UNL     1       0.862  -1.268  -8.196  1.00  0.00     0.002 C 
ATOM     34  C   UNL     1       2.363  -1.559  -8.128  1.00  0.00     0.004 C 
ATOM     35  C   UNL     1       2.850   0.853  -8.561  1.00  0.00     0.008 C 
ENDBRANCH  26  28
ENDBRANCH  24  26
ENDBRANCH  22  24
ENDBRANCH   3  22
TORSDOF 8
