REMARK SMILES O=C(CN1C(=O)[N-][C@]2(CCCc3ccccc32)C1=O)Nc1nc(-c2ccc3ccccc3c2)cs1
REMARK SMILES IDX 20 1 2 2 1 3 21 5 23 6 22 7 34 8 35 9 24 10 29 11 28 12
REMARK SMILES IDX 30 13 27 14 31 15 32 16 26 17 33 18 25 19 3 20 4 21 5 22
REMARK SMILES IDX 18 23 7 24 6 25 19 26 8 27 17 28 9 29 12 30 16 31 10 32
REMARK SMILES IDX 11 33 13 34 15 35 14 36
REMARK H PARENT 20 4
REMARK Flexibility Score: inf
ROOT
ATOM      1  N   UNL     1       6.120   7.420  -0.013  1.00  0.00    -0.302 N 
ATOM      2  C   UNL     1       7.364   7.937  -0.022  1.00  0.00     0.226 C 
ATOM      3  O   UNL     1       8.327   7.200  -0.036  1.00  0.00    -0.275 OA
ATOM      4  H   UNL     1       5.302   8.046  -0.002  1.00  0.00     0.172 HD
ENDROOT
BRANCH   1   5
ATOM      5  C   UNL     1       5.940   6.042  -0.020  1.00  0.00     0.189 A 
ATOM      6  C   UNL     1       4.831   4.022  -0.021  1.00  0.00     0.084 A 
ATOM      7  N   UNL     1       4.819   5.346  -0.013  1.00  0.00    -0.220 NA
ATOM      8  C   UNL     1       6.029   3.362  -0.030  1.00  0.00     0.097 A 
ATOM      9  S   UNL     1       7.166   4.742  -0.039  1.00  0.00    -0.105 S 
BRANCH   6  10
ATOM     10  C   UNL     1       3.558   3.261  -0.013  1.00  0.00     0.002 A 
ATOM     11  C   UNL     1      -1.199   1.743   0.017  1.00  0.00     0.001 A 
ATOM     12  C   UNL     1      -0.013   1.076   0.008  1.00  0.00     0.009 A 
ATOM     13  C   UNL     1      -1.239   3.136   0.031  1.00  0.00     0.001 A 
ATOM     14  C   UNL     1       1.193   1.798   0.000  1.00  0.00    -0.018 A 
ATOM     15  C   UNL     1      -0.092   3.870   0.024  1.00  0.00     0.009 A 
ATOM     16  C   UNL     1       1.153   3.215   0.008  1.00  0.00    -0.018 A 
ATOM     17  C   UNL     1       2.434   1.137  -0.015  1.00  0.00     0.009 A 
ATOM     18  C   UNL     1       2.354   3.940   0.001  1.00  0.00     0.019 A 
ATOM     19  C   UNL     1       3.586   1.857  -0.021  1.00  0.00     0.011 A 
ENDBRANCH   6  10
ENDBRANCH   1   5
BRANCH   2  20
ATOM     20  C   UNL     1       7.559   9.432  -0.015  1.00  0.00     0.113 C 
BRANCH  20  21
ATOM     21  N   UNL     1       8.991   9.738  -0.027  1.00  0.00    -0.372 N 
ATOM     22  C   UNL     1       9.736   9.894   1.074  1.00  0.00     0.162 C 
ATOM     23  C   UNL     1       9.722   9.902  -1.149  1.00  0.00     0.160 C 
ATOM     24  N   UNL     1      11.024  10.165   0.789  1.00  0.00    -0.413 NA
ATOM     25  O   UNL     1       9.300   9.798   2.204  1.00  0.00    -0.298 OA
ATOM     26  O   UNL     1       9.334   9.829  -2.295  1.00  0.00    -0.298 OA
ATOM     27  C   UNL     1      11.128  10.199  -0.677  1.00  0.00     0.062 C 
ATOM     28  C   UNL     1      12.072   9.132  -1.155  1.00  0.00    -0.032 A 
ATOM     29  C   UNL     1      11.563  11.581  -1.146  1.00  0.00     0.019 C 
ATOM     30  C   UNL     1      12.974   9.349  -2.174  1.00  0.00    -0.044 A 
ATOM     31  C   UNL     1      12.018   7.889  -0.538  1.00  0.00     0.005 A 
ATOM     32  C   UNL     1      11.839  11.518  -2.653  1.00  0.00     0.006 C 
ATOM     33  C   UNL     1      13.091  10.674  -2.881  1.00  0.00     0.036 C 
ATOM     34  C   UNL     1      13.817   8.322  -2.576  1.00  0.00     0.004 A 
ATOM     35  C   UNL     1      12.858   6.870  -0.939  1.00  0.00     0.000 A 
ATOM     36  C   UNL     1      13.761   7.087  -1.963  1.00  0.00     0.000 A 
ENDBRANCH  20  21
ENDBRANCH   2  20
TORSDOF 4
