REMARK SMILES CC[C@H]1CCc2sc(C(=O)NNC(=O)c3n[nH]c(=O)c4ccccc34)cc2C1
REMARK SMILES IDX 9 1 10 2 11 3 8 5 3 6 28 7 4 8 27 9 5 10 6 11 26 12 7 13
REMARK SMILES IDX 2 14 1 15 12 16 13 17 14 19 15 20 16 21 25 22 17 23 20 24
REMARK SMILES IDX 24 25 18 26 21 28 23 29 19 30 22 31
REMARK H PARENT 11 4 12 18 17 27
REMARK Flexibility Score: inf
ROOT
ATOM      1  C   UNL     1      -2.199   2.262  -4.974  1.00  0.00     0.279 C 
ATOM      2  O   UNL     1      -3.042   3.076  -5.300  1.00  0.00    -0.266 OA
ATOM      3  N   UNL     1      -1.638   1.463  -5.903  1.00  0.00    -0.262 N 
ATOM      4  H   UNL     1      -0.924   0.774  -5.627  1.00  0.00     0.191 HD
ENDROOT
BRANCH   1   5
ATOM      5  C   UNL     1      -1.792   2.151  -3.570  1.00  0.00     0.094 A 
ATOM      6  C   UNL     1      -1.026   3.082   1.104  1.00  0.00    -0.007 C 
ATOM      7  C   UNL     1      -2.105   3.299   0.043  1.00  0.00     0.040 C 
ATOM      8  C   UNL     1      -0.742   1.586   1.263  1.00  0.00     0.009 C 
ATOM      9  C   UNL     1      -1.692   2.573  -1.235  1.00  0.00    -0.033 A 
ATOM     10  C   UNL     1      -0.013   1.086   0.008  1.00  0.00     0.047 C 
ATOM     11  C   UNL     1      -0.747   1.587  -1.197  1.00  0.00     0.009 A 
ATOM     12  C   UNL     1      -2.237   2.867  -2.474  1.00  0.00     0.029 A 
ATOM     13  S   UNL     1      -0.593   1.056  -2.829  1.00  0.00    -0.135 S 
BRANCH   6  14
ATOM     14  C   UNL     1      -1.506   3.653   2.440  1.00  0.00     0.000 C 
ATOM     15  C   UNL     1      -1.658   5.171   2.321  1.00  0.00     0.004 C 
ENDBRANCH   6  14
ENDBRANCH   1   5
BRANCH   3  16
ATOM     16  N   UNL     1      -2.027   1.569  -7.245  1.00  0.00    -0.262 N 
ATOM     17  C   UNL     1      -1.466   0.770  -8.174  1.00  0.00     0.290 C 
ATOM     18  H   UNL     1      -2.741   2.258  -7.521  1.00  0.00     0.191 HD
ATOM     19  O   UNL     1      -0.624  -0.043  -7.848  1.00  0.00    -0.266 OA
BRANCH  17  20
ATOM     20  C   UNL     1      -1.875   0.882  -9.588  1.00  0.00     0.158 A 
ATOM     21  N   UNL     1      -2.787   1.752  -9.948  1.00  0.00    -0.166 NA
ATOM     22  C   UNL     1      -1.269   0.013 -10.610  1.00  0.00     0.021 A 
ATOM     23  N   UNL     1      -3.193   1.915 -11.150  1.00  0.00    -0.242 N 
ATOM     24  C   UNL     1      -1.708   0.174 -11.944  1.00  0.00     0.051 A 
ATOM     25  C   UNL     1      -0.300  -0.939 -10.311  1.00  0.00     0.011 A 
ATOM     26  C   UNL     1      -2.734   1.196 -12.195  1.00  0.00     0.272 A 
ATOM     27  H   UNL     1      -3.909   2.634 -11.330  1.00  0.00     0.194 HD
ATOM     28  C   UNL     1      -1.171  -0.620 -12.953  1.00  0.00     0.014 A 
ATOM     29  C   UNL     1       0.220  -1.716 -11.324  1.00  0.00     0.001 A 
ATOM     30  O   UNL     1      -3.159   1.390 -13.319  1.00  0.00    -0.267 OA
ATOM     31  C   UNL     1      -0.211  -1.558 -12.635  1.00  0.00     0.001 A 
ENDBRANCH  17  20
ENDBRANCH   3  16
TORSDOF 4
