REMARK SMILES Cn1c(=O)c(C(=O)CN2CCc3sccc3[C@@H]2c2ccccc2)c(N)n(Cc2ccccc2)c1=O
REMARK SMILES IDX 6 1 7 2 5 3 1 4 2 5 34 6 3 7 26 8 35 9 4 10 24 11 27 12
REMARK SMILES IDX 28 13 33 14 29 15 32 16 30 17 31 18 25 19 8 22 9 23 10 24
REMARK SMILES IDX 17 25 11 26 16 27 12 28 15 29 13 30 14 31 18 32 23 33 19 34
REMARK SMILES IDX 22 35 20 36 21 37
REMARK H PARENT 25 20 25 21
REMARK Flexibility Score: inf
ROOT
ATOM      1  C   UNL     1       1.066   3.468  -0.002  1.00  0.00     0.186 C 
ATOM      2  O   UNL     1      -0.003   4.035   0.101  1.00  0.00    -0.292 OA
ENDROOT
BRANCH   1   3
ATOM      3  C   UNL     1       1.120   2.057  -0.003  1.00  0.00     0.125 A 
ATOM      4  C   UNL     1       3.669  -0.731   0.002  1.00  0.00     0.158 C 
ATOM      5  N   UNL     1       2.398  -0.001  -0.002  1.00  0.00    -0.263 N 
ATOM      6  C   UNL     1       1.242  -0.684  -0.007  1.00  0.00     0.332 A 
ATOM      7  C   UNL     1       2.405   1.348   0.000  1.00  0.00     0.269 A 
ATOM      8  N   UNL     1       0.046  -0.075  -0.011  1.00  0.00    -0.275 N 
ATOM      9  O   UNL     1       1.280  -1.899  -0.010  1.00  0.00    -0.247 OA
ATOM     10  O   UNL     1       3.455   1.964   0.005  1.00  0.00    -0.268 OA
ATOM     11  C   UNL     1      -0.056   1.287  -0.009  1.00  0.00     0.124 A 
BRANCH   8  12
ATOM     12  C   UNL     1      -1.173  -0.887  -0.016  1.00  0.00     0.164 C 
BRANCH  12  13
ATOM     13  C   UNL     1      -1.586  -1.163  -1.439  1.00  0.00    -0.028 A 
ATOM     14  C   UNL     1      -1.112  -2.286  -2.091  1.00  0.00     0.005 A 
ATOM     15  C   UNL     1      -2.444  -0.296  -2.090  1.00  0.00     0.005 A 
ATOM     16  C   UNL     1      -1.491  -2.539  -3.396  1.00  0.00     0.000 A 
ATOM     17  C   UNL     1      -2.819  -0.546  -3.397  1.00  0.00     0.000 A 
ATOM     18  C   UNL     1      -2.345  -1.669  -4.049  1.00  0.00     0.000 A 
ENDBRANCH  12  13
ENDBRANCH   8  12
BRANCH  11  19
ATOM     19  N   UNL     1      -1.277   1.888  -0.018  1.00  0.00    -0.384 N 
ATOM     20  H   UNL     1      -1.337   2.917  -0.021  1.00  0.00     0.158 HD
ATOM     21  H   UNL     1      -2.136   1.320  -0.022  1.00  0.00     0.158 HD
ENDBRANCH  11  19
ENDBRANCH   1   3
BRANCH   1  22
ATOM     22  C   UNL     1       2.336   4.270  -0.127  1.00  0.00     0.167 C 
BRANCH  22  23
ATOM     23  N   UNL     1       1.988   5.704  -0.124  1.00  0.00    -0.284 NA
ATOM     24  C   UNL     1       1.480   6.098   1.212  1.00  0.00     0.091 C 
ATOM     25  C   UNL     1       3.178   6.511  -0.487  1.00  0.00     0.119 C 
ATOM     26  C   UNL     1       0.786   7.463   1.073  1.00  0.00     0.062 C 
ATOM     27  C   UNL     1       2.792   7.985  -0.417  1.00  0.00    -0.012 A 
ATOM     28  C   UNL     1       1.698   8.361   0.303  1.00  0.00     0.011 A 
ATOM     29  C   UNL     1       3.496   9.004  -1.056  1.00  0.00     0.017 A 
ATOM     30  S   UNL     1       1.638  10.118   0.097  1.00  0.00    -0.149 S 
ATOM     31  C   UNL     1       3.081  10.287  -0.944  1.00  0.00     0.065 A 
BRANCH  25  32
ATOM     32  C   UNL     1       3.590   6.162  -1.894  1.00  0.00    -0.026 A 
ATOM     33  C   UNL     1       4.930   6.068  -2.219  1.00  0.00     0.006 A 
ATOM     34  C   UNL     1       2.627   5.930  -2.859  1.00  0.00     0.006 A 
ATOM     35  C   UNL     1       5.308   5.748  -3.509  1.00  0.00     0.000 A 
ATOM     36  C   UNL     1       3.005   5.615  -4.151  1.00  0.00     0.000 A 
ATOM     37  C   UNL     1       4.346   5.521  -4.475  1.00  0.00     0.000 A 
ENDBRANCH  25  32
ENDBRANCH  22  23
ENDBRANCH   1  22
TORSDOF 7
