REMARK SMILES NC(=O)C1([NH+]2CCCCC2)CCN(C(=O)[C@@H]2CCCN(c3c(-c4ccccc4)c4cc(Cl)ccc4[nH]c3=O)C2)CC1
REMARK SMILES IDX 20 1 19 2 18 3 17 4 16 5 39 6 21 7 22 8 29 9 37 10 35 11
REMARK SMILES IDX 30 12 36 13 38 14 34 15 31 16 33 18 32 19 23 20 26 21 27 22
REMARK SMILES IDX 25 23 28 24 24 25 14 26 15 27 13 28 40 29 12 30 41 31 11 32
REMARK SMILES IDX 4 33 2 34 3 35 1 36 5 39 6 40 10 41 7 43 9 44 8 45
REMARK H PARENT 36 17 1 37 1 38 5 42
REMARK Flexibility Score: inf
ROOT
ATOM      1  N   UNL     1       4.503   1.630   9.039  1.00  0.00    -0.366 N 
ATOM      2  C   UNL     1       3.401   2.535   8.693  1.00  0.00     0.117 C 
ATOM      3  C   UNL     1       2.446   1.832   7.726  1.00  0.00     0.022 C 
ATOM      4  C   UNL     1       3.212   1.425   6.464  1.00  0.00     0.017 C 
ATOM      5  C   UNL     1       4.384   0.522   6.857  1.00  0.00     0.098 C 
ATOM      6  C   UNL     1       5.283   1.263   7.850  1.00  0.00     0.130 C 
ENDROOT
BRANCH   1   7
ATOM      7  C   UNL     1       5.322   2.191  10.021  1.00  0.00     0.111 A 
ATOM      8  C   UNL     1       5.421   1.595  11.266  1.00  0.00     0.020 A 
ATOM      9  C   UNL     1       6.296   2.222  12.270  1.00  0.00     0.010 A 
ATOM     10  C   UNL     1       6.059   3.368   9.744  1.00  0.00     0.272 A 
ATOM     11  C   UNL     1       6.994   3.393  11.929  1.00  0.00     0.049 A 
ATOM     12  C   UNL     1       6.438   1.671  13.545  1.00  0.00     0.031 A 
ATOM     13  N   UNL     1       6.851   3.937  10.668  1.00  0.00    -0.320 N 
ATOM     14  O   UNL     1       5.968   3.880   8.642  1.00  0.00    -0.267 OA
ATOM     15  C   UNL     1       7.824   3.993  12.871  1.00  0.00     0.028 A 
ATOM     16  C   UNL     1       7.266   2.280  14.462  1.00  0.00     0.041 A 
ATOM     17  H   UNL     1       7.363   4.799  10.430  1.00  0.00     0.170 HD
ATOM     18  C   UNL     1       7.955   3.438  14.125  1.00  0.00     0.023 A 
ATOM     19  Cl  UNL     1       7.447   1.599  16.049  1.00  0.00    -0.084 Cl
BRANCH   8  20
ATOM     20  C   UNL     1       4.667   0.362  11.580  1.00  0.00    -0.015 A 
ATOM     21  C   UNL     1       3.255  -1.946  12.168  1.00  0.00     0.000 A 
ATOM     22  C   UNL     1       2.574  -0.770  11.907  1.00  0.00     0.001 A 
ATOM     23  C   UNL     1       4.638  -1.974  12.136  1.00  0.00     0.001 A 
ATOM     24  C   UNL     1       3.272   0.385  11.620  1.00  0.00     0.009 A 
ATOM     25  C   UNL     1       5.347  -0.828  11.844  1.00  0.00     0.009 A 
ENDBRANCH   8  20
ENDBRANCH   1   7
BRANCH   5  26
ATOM     26  C   UNL     1       5.179   0.166   5.628  1.00  0.00     0.227 C 
ATOM     27  O   UNL     1       6.313   0.578   5.498  1.00  0.00    -0.275 OA
ATOM     28  N   UNL     1       4.631  -0.611   4.673  1.00  0.00    -0.342 N 
ATOM     29  C   UNL     1       5.366  -0.906   3.435  1.00  0.00     0.126 C 
ATOM     30  C   UNL     1       3.288  -1.179   4.849  1.00  0.00     0.126 C 
ATOM     31  C   UNL     1       5.416  -2.425   3.241  1.00  0.00     0.101 C 
ATOM     32  C   UNL     1       3.361  -2.695   4.640  1.00  0.00     0.101 C 
ATOM     33  C   UNL     1       3.993  -2.987   3.277  1.00  0.00     0.180 C 
BRANCH  33  34
ATOM     34  C   UNL     1       3.171  -2.340   2.193  1.00  0.00     0.278 C 
ATOM     35  O   UNL     1       3.518  -1.278   1.720  1.00  0.00    -0.268 OA
ATOM     36  N   UNL     1       2.049  -2.941   1.748  1.00  0.00    -0.364 N 
ATOM     37  H   UNL     1       1.754  -3.843   2.150  1.00  0.00     0.159 HD
ATOM     38  H   UNL     1       1.487  -2.498   1.007  1.00  0.00     0.159 HD
ENDBRANCH  33  34
BRANCH  33  39
ATOM     39  N   UNL     1       4.007  -4.449   3.060  1.00  0.00    -0.322 N 
ATOM     40  C   UNL     1       4.560  -4.756   1.724  1.00  0.00     0.263 C 
ATOM     41  C   UNL     1       4.815  -5.107   4.108  1.00  0.00     0.263 C 
ATOM     42  H   UNL     1       3.041  -4.804   3.111  1.00  0.00     0.349 HD
ATOM     43  C   UNL     1       4.454  -6.262   1.477  1.00  0.00     0.062 C 
ATOM     44  C   UNL     1       4.716  -6.624   3.932  1.00  0.00     0.062 C 
ATOM     45  C   UNL     1       5.252  -7.008   2.550  1.00  0.00     0.012 C 
ENDBRANCH  33  39
ENDBRANCH   5  26
TORSDOF 5
