REMARK SMILES CCn1nc(C(=O)N2CCCCCC2)c2c1CC[C@@H]([NH2+][C@H]1[C@@H]3C[C@@H]4C[C@H]1C[C@@](O)(C4)C3)C2
REMARK SMILES IDX 6 1 7 2 8 3 5 4 3 5 4 6 16 7 17 8 15 9 18 10 32 11 19 12
REMARK SMILES IDX 2 13 1 14 20 15 21 18 22 19 26 20 23 21 31 22 27 23 25 24
REMARK SMILES IDX 24 25 28 26 30 27 29 28 14 30 13 31 9 33 10 34 11 35 12 36
REMARK H PARENT 20 16 20 17 29 29
REMARK Flexibility Score: 80.00
ROOT
ATOM      1  C   UNL     1      -4.768  -4.000   2.897  1.00  0.00     0.274 C 
ATOM      2  O   UNL     1      -5.096  -2.834   2.790  1.00  0.00    -0.267 OA
ATOM      3  N   UNL     1      -5.474  -4.828   3.692  1.00  0.00    -0.337 N 
ENDROOT
BRANCH   1   4
ATOM      4  C   UNL     1      -3.596  -4.509   2.156  1.00  0.00     0.154 A 
ATOM      5  N   UNL     1      -2.130  -5.849   1.359  1.00  0.00    -0.269 N 
ATOM      6  N   UNL     1      -3.184  -5.764   2.094  1.00  0.00    -0.167 NA
ATOM      7  C   UNL     1      -1.793  -4.635   0.894  1.00  0.00     0.043 A 
ATOM      8  C   UNL     1      -0.642  -4.250   0.001  1.00  0.00     0.062 C 
ATOM      9  C   UNL     1      -2.701  -3.753   1.380  1.00  0.00     0.012 A 
ATOM     10  C   UNL     1      -0.925  -2.856  -0.576  1.00  0.00     0.072 C 
ATOM     11  C   UNL     1      -2.689  -2.275   1.103  1.00  0.00     0.105 C 
ATOM     12  C   UNL     1      -1.306  -1.899   0.557  1.00  0.00     0.187 C 
BRANCH   5  13
ATOM     13  C   UNL     1      -1.404  -7.089   1.073  1.00  0.00     0.141 C 
ATOM     14  C   UNL     1      -0.324  -7.306   2.135  1.00  0.00     0.029 C 
ENDBRANCH   5  13
BRANCH  12  15
ATOM     15  N   UNL     1      -1.342  -0.520   0.033  1.00  0.00    -0.341 N 
ATOM     16  H   UNL     1      -2.272  -0.331  -0.368  1.00  0.00     0.346 HD
ATOM     17  H   UNL     1      -0.630  -0.416  -0.704  1.00  0.00     0.346 HD
BRANCH  15  18
ATOM     18  C   UNL     1      -1.071   0.446   1.114  1.00  0.00     0.189 C 
ATOM     19  C   UNL     1       0.440   0.588   1.305  1.00  0.00     0.051 C 
ATOM     20  C   UNL     1      -1.667   1.803   0.736  1.00  0.00     0.051 C 
ATOM     21  C   UNL     1       0.721   1.597   2.421  1.00  0.00     0.013 C 
ATOM     22  C   UNL     1       1.075   1.079   0.003  1.00  0.00     0.045 C 
ATOM     23  C   UNL     1      -1.033   2.294  -0.566  1.00  0.00     0.045 C 
ATOM     24  C   UNL     1      -1.387   2.812   1.852  1.00  0.00     0.013 C 
ATOM     25  C   UNL     1       0.124   2.954   2.043  1.00  0.00    -0.007 C 
ATOM     26  C   UNL     1       0.479   2.437  -0.375  1.00  0.00     0.066 C 
ATOM     27  C   UNL     1       0.759   3.445   0.740  1.00  0.00     0.039 C 
BRANCH  26  28
ATOM     28  O   UNL     1       1.071   2.895  -1.592  1.00  0.00    -0.390 OA
ATOM     29  H   UNL     1       0.890   2.243  -2.315  1.00  0.00     0.211 HD
ENDBRANCH  26  28
ENDBRANCH  15  18
ENDBRANCH  12  15
ENDBRANCH   1   4
BRANCH   3  30
ATOM     30  C   UNL     1      -6.596  -4.273   4.473  1.00  0.00     0.120 C 
BRANCH  30  31
ATOM     31  C   UNL     1      -7.826  -5.199   4.461  1.00  0.00     0.022 CG0
ATOM     32  G   UNL     1      -8.021  -5.784   3.084  1.00  0.00     0.000 G0
ENDBRANCH  30  31
ENDBRANCH   3  30
BRANCH   3  33
ATOM     33  C   UNL     1      -5.105  -6.225   3.740  1.00  0.00     0.120 C 
BRANCH  33  34
ATOM     34  C   UNL     1      -5.863  -7.007   2.647  1.00  0.00     0.022 C 
BRANCH  34  35
ATOM     35  C   UNL     1      -7.288  -7.120   2.995  1.00  0.00     0.002 C 
BRANCH  35  36
ATOM     36  C   UNL     1      -8.021  -5.784   3.084  1.00  0.00     0.002 CG0
ATOM     37  G   UNL     1      -7.826  -5.199   4.461  1.00  0.00     0.000 G0
ENDBRANCH  35  36
ENDBRANCH  34  35
ENDBRANCH  33  34
ENDBRANCH   3  33
TORSDOF 5
