REMARK SMILES Cc1cc(C)cc(NC(=O)Cc2nnc(S[C@H](C)C(=O)Nc3cc(Cl)cc(Cl)c3)n2C)c1
REMARK SMILES IDX 12 1 13 2 14 3 15 4 30 5 31 6 11 7 9 8 8 9 10 11 7 12 1 13
REMARK SMILES IDX 2 14 32 15 3 16 4 17 6 18 5 19 16 20 17 21 18 22 19 23 20 24
REMARK SMILES IDX 21 25 22 27 23 28 29 29 24 30 27 31 26 32 25 33 28 34
REMARK H PARENT 8 10 21 26
REMARK Flexibility Score: inf
ROOT
ATOM      1  C   UNL     1       4.919   5.746  -0.390  1.00  0.00     0.142 A 
ATOM      2  N   UNL     1       4.650   6.540   0.607  1.00  0.00    -0.134 NA
ATOM      3  N   UNL     1       4.379   7.719   0.172  1.00  0.00    -0.123 NA
ATOM      4  C   UNL     1       4.462   7.740  -1.138  1.00  0.00     0.191 A 
ATOM      5  N   UNL     1       4.814   6.483  -1.538  1.00  0.00    -0.309 N 
ATOM      6  C   UNL     1       5.032   6.019  -2.910  1.00  0.00     0.154 C 
ENDROOT
BRANCH   1   7
ATOM      7  C   UNL     1       5.285   4.287  -0.296  1.00  0.00     0.177 C 
BRANCH   7   8
ATOM      8  C   UNL     1       4.034   3.450  -0.358  1.00  0.00     0.232 C 
ATOM      9  N   UNL     1       4.117   2.107  -0.291  1.00  0.00    -0.326 N 
ATOM     10  H   UNL     1       5.027   1.655  -0.120  1.00  0.00     0.169 HD
ATOM     11  O   UNL     1       2.951   3.986  -0.467  1.00  0.00    -0.274 OA
BRANCH   9  12
ATOM     12  C   UNL     1       2.969   1.325  -0.456  1.00  0.00     0.041 A 
ATOM     13  C   UNL     1       1.557  -1.940   0.821  1.00  0.00     0.044 C 
ATOM     14  C   UNL     1       1.702  -0.642   0.069  1.00  0.00    -0.049 A 
ATOM     15  C   UNL     1       2.838   0.127   0.234  1.00  0.00     0.029 A 
ATOM     16  C   UNL     1       0.697  -0.220  -0.781  1.00  0.00     0.007 A 
ATOM     17  C   UNL     1       0.824   0.972  -1.469  1.00  0.00    -0.049 A 
ATOM     18  C   UNL     1       1.957   1.746  -1.309  1.00  0.00     0.029 A 
ATOM     19  C   UNL     1      -0.274   1.428  -2.395  1.00  0.00     0.044 C 
ENDBRANCH   9  12
ENDBRANCH   7   8
ENDBRANCH   1   7
BRANCH   4  20
ATOM     20  S   UNL     1       4.178   9.130  -2.183  1.00  0.00    -0.073 SA
BRANCH  20  21
ATOM     21  C   UNL     1       3.775  10.382  -0.939  1.00  0.00     0.141 C 
ATOM     22  C   UNL     1       2.473   9.998  -0.234  1.00  0.00     0.030 C 
BRANCH  21  23
ATOM     23  C   UNL     1       3.607  11.721  -1.610  1.00  0.00     0.237 C 
ATOM     24  O   UNL     1       3.294  11.778  -2.780  1.00  0.00    -0.273 OA
ATOM     25  N   UNL     1       3.804  12.855  -0.909  1.00  0.00    -0.325 N 
ATOM     26  H   UNL     1       4.145  12.808   0.062  1.00  0.00     0.169 HD
BRANCH  25  27
ATOM     27  C   UNL     1       3.544  14.097  -1.500  1.00  0.00     0.044 A 
ATOM     28  C   UNL     1       2.518  14.225  -2.426  1.00  0.00     0.046 A 
ATOM     29  C   UNL     1       4.308  15.204  -1.155  1.00  0.00     0.046 A 
ATOM     30  C   UNL     1       2.263  15.453  -3.008  1.00  0.00     0.044 A 
ATOM     31  C   UNL     1       4.053  16.428  -1.744  1.00  0.00     0.044 A 
ATOM     32  C   UNL     1       3.030  16.553  -2.668  1.00  0.00     0.041 A 
ATOM     33  Cl  UNL     1       0.981  15.614  -4.167  1.00  0.00    -0.084 Cl
ATOM     34  Cl  UNL     1       5.012  17.811  -1.320  1.00  0.00    -0.084 Cl
ENDBRANCH  25  27
ENDBRANCH  21  23
ENDBRANCH  20  21
ENDBRANCH   4  20
TORSDOF 7
