REMARK SMILES C[C@H](NC(=O)COc1ccc2c(c1)CCCC2)C(=O)N/N=C/c1cc(Br)ccc1O
REMARK SMILES IDX 1 1 2 2 18 3 19 4 20 5 21 7 22 8 23 9 29 10 24 11 28 12
REMARK SMILES IDX 25 13 27 14 26 15 30 16 3 18 4 19 5 21 6 22 7 23 8 24 13 25
REMARK SMILES IDX 9 26 12 27 10 28 11 29 14 30 17 31 15 32 16 33
REMARK H PARENT 20 6 30 17 3 20
REMARK Flexibility Score: inf
ROOT
ATOM      1  C   UNL     1      -6.147  -1.848  -1.196  1.00  0.00     0.041 C 
ATOM      2  C   UNL     1      -6.068  -0.974   0.057  1.00  0.00     0.170 C 
ENDROOT
BRANCH   2   3
ATOM      3  C   UNL     1      -4.776  -0.199   0.048  1.00  0.00     0.262 C 
ATOM      4  O   UNL     1      -4.796   1.014   0.055  1.00  0.00    -0.271 OA
ATOM      5  N   UNL     1      -3.598  -0.853   0.033  1.00  0.00    -0.245 N 
ATOM      6  H   UNL     1      -3.580  -1.883   0.028  1.00  0.00     0.193 HD
BRANCH   5   7
ATOM      7  N   UNL     1      -2.396  -0.132   0.025  1.00  0.00    -0.181 NA
ATOM      8  C   UNL     1      -1.262  -0.762   0.011  1.00  0.00     0.145 C 
BRANCH   8   9
ATOM      9  C   UNL     1       0.002  -0.004   0.002  1.00  0.00     0.037 A 
ATOM     10  C   UNL     1      -0.017   1.397   0.010  1.00  0.00     0.124 A 
ATOM     11  C   UNL     1       1.225  -0.678  -0.013  1.00  0.00     0.029 A 
ATOM     12  C   UNL     1       1.176   2.101   0.002  1.00  0.00     0.048 A 
ATOM     13  C   UNL     1       2.405   0.038  -0.021  1.00  0.00     0.018 A 
ATOM     14  C   UNL     1       2.381   1.423  -0.013  1.00  0.00     0.019 A 
ATOM     15  Br  UNL     1       4.061  -0.875  -0.041  1.00  0.00    -0.051 Br
BRANCH  10  16
ATOM     16  O   UNL     1      -1.201   2.063   0.019  1.00  0.00    -0.507 OA
ATOM     17  H   UNL     1      -1.679   1.720   0.815  1.00  0.00     0.293 HD
ENDBRANCH  10  16
ENDBRANCH   8   9
ENDBRANCH   5   7
ENDBRANCH   2   3
BRANCH   2  18
ATOM     18  N   UNL     1      -7.197  -0.041   0.073  1.00  0.00    -0.342 N 
ATOM     19  C   UNL     1      -8.386  -0.430   0.576  1.00  0.00     0.258 C 
ATOM     20  H   UNL     1      -7.083   0.912  -0.300  1.00  0.00     0.164 HD
ATOM     21  O   UNL     1      -8.520  -1.552   1.016  1.00  0.00    -0.271 OA
BRANCH  19  22
ATOM     22  C   UNL     1      -9.547   0.530   0.593  1.00  0.00     0.329 C 
BRANCH  22  23
ATOM     23  O   UNL     1     -10.687  -0.111   1.170  1.00  0.00    -0.484 OA
BRANCH  23  24
ATOM     24  C   UNL     1     -11.827   0.622   1.261  1.00  0.00     0.120 A 
ATOM     25  C   UNL     1     -12.970   0.067   1.809  1.00  0.00     0.050 A 
ATOM     26  C   UNL     1     -11.851   1.934   0.809  1.00  0.00     0.047 A 
ATOM     27  C   UNL     1     -14.139   0.810   1.907  1.00  0.00    -0.041 A 
ATOM     28  C   UNL     1     -13.014   2.668   0.902  1.00  0.00     0.008 A 
ATOM     29  C   UNL     1     -14.160   2.111   1.456  1.00  0.00    -0.045 A 
ATOM     30  C   UNL     1     -15.347   0.140   2.508  1.00  0.00     0.036 C 
ATOM     31  C   UNL     1     -15.390   2.977   1.539  1.00  0.00     0.036 C 
ATOM     32  C   UNL     1     -16.381   1.180   2.935  1.00  0.00     0.005 C 
ATOM     33  C   UNL     1     -16.637   2.121   1.752  1.00  0.00     0.005 C 
ENDBRANCH  23  24
ENDBRANCH  22  23
ENDBRANCH  19  22
ENDBRANCH   2  18
TORSDOF 8
