REMARK SMILES CC(=O)O[C@@H]1C[C@H]2[C@@H]3CC=C4C[C@@H](O)CC[C@]4(C)[C@H]3CC[C@]2(C)[C@@]1(O)/C(C)=N/Nc1ccccc1
REMARK SMILES IDX 24 1 5 2 6 3 7 4 22 5 21 6 20 7 19 8 8 9 9 10 10 11 11 12
REMARK SMILES IDX 17 13 16 14 15 15 13 16 12 17 18 18 23 19 26 20 27 21 28 22
REMARK SMILES IDX 29 23 30 25 35 26 31 27 34 28 32 29 33 30 25 31 4 33 2 34
REMARK SMILES IDX 3 35 1 36 14 37
REMARK H PARENT 29 24 25 32 14 38
REMARK Flexibility Score: inf
ROOT
ATOM      1  C   UNL     1       0.419  -0.307  -6.636  1.00  0.00     0.146 C 
ATOM      2  C   UNL     1       0.646   1.051  -7.345  1.00  0.00     0.215 C 
ATOM      3  C   UNL     1       0.116   2.145  -6.378  1.00  0.00     0.053 C 
ATOM      4  C   UNL     1       0.202   1.462  -5.009  1.00  0.00     0.006 C 
ATOM      5  C   UNL     1      -0.306   0.033  -5.337  1.00  0.00     0.009 C 
ATOM      6  C   UNL     1       0.013  -0.840  -4.138  1.00  0.00     0.011 C 
ATOM      7  C   UNL     1      -0.821  -0.312  -2.960  1.00  0.00     0.005 C 
ATOM      8  C   UNL     1      -0.532   1.160  -2.677  1.00  0.00     0.003 C 
ATOM      9  C   UNL     1      -0.707   2.027  -3.932  1.00  0.00     0.001 C 
ATOM     10  C   UNL     1      -0.270   3.456  -3.590  1.00  0.00     0.031 C 
ATOM     11  C   UNL     1      -1.060   3.945  -2.412  1.00  0.00    -0.027 C 
ATOM     12  C   UNL     1      -1.552   3.149  -1.524  1.00  0.00    -0.065 C 
ATOM     13  C   UNL     1      -1.434   1.654  -1.558  1.00  0.00    -0.008 C 
ATOM     14  C   UNL     1      -0.916   1.153  -0.207  1.00  0.00     0.014 C 
ATOM     15  C   UNL     1      -1.815   1.685   0.911  1.00  0.00     0.033 C 
ATOM     16  C   UNL     1      -1.750   3.212   0.942  1.00  0.00     0.118 C 
ATOM     17  C   UNL     1      -2.313   3.774  -0.367  1.00  0.00     0.063 C 
ATOM     18  C   UNL     1      -2.831   1.070  -1.778  1.00  0.00     0.016 C 
ATOM     19  C   UNL     1      -1.817   0.053  -5.577  1.00  0.00     0.015 C 
ENDROOT
BRANCH   1  20
ATOM     20  C   UNL     1      -0.435  -1.206  -7.491  1.00  0.00     0.071 C 
ATOM     21  C   UNL     1      -0.764  -2.601  -7.024  1.00  0.00     0.067 C 
ATOM     22  N   UNL     1      -0.882  -0.786  -8.615  1.00  0.00    -0.182 NA
BRANCH  22  23
ATOM     23  N   UNL     1      -1.780  -1.571  -9.350  1.00  0.00    -0.278 N 
ATOM     24  H   UNL     1      -2.027  -2.515  -9.021  1.00  0.00     0.190 HD
BRANCH  23  25
ATOM     25  C   UNL     1      -2.341  -1.073 -10.527  1.00  0.00     0.056 A 
ATOM     26  C   UNL     1      -3.311  -1.805 -11.200  1.00  0.00     0.027 A 
ATOM     27  C   UNL     1      -1.933   0.158 -11.027  1.00  0.00     0.027 A 
ATOM     28  C   UNL     1      -3.864  -1.310 -12.365  1.00  0.00     0.002 A 
ATOM     29  C   UNL     1      -2.485   0.644 -12.195  1.00  0.00     0.002 A 
ATOM     30  C   UNL     1      -3.451  -0.087 -12.862  1.00  0.00     0.000 A 
ENDBRANCH  23  25
ENDBRANCH  22  23
ENDBRANCH   1  20
BRANCH   1  31
ATOM     31  O   UNL     1       1.672  -0.934  -6.354  1.00  0.00    -0.379 OA
ATOM     32  H   UNL     1       2.140  -1.122  -7.206  1.00  0.00     0.212 HD
ENDBRANCH   1  31
BRANCH   2  33
ATOM     33  O   UNL     1       2.062   1.252  -7.596  1.00  0.00    -0.459 OA
BRANCH  33  34
ATOM     34  C   UNL     1       2.393   1.982  -8.672  1.00  0.00     0.303 C 
ATOM     35  O   UNL     1       1.528   2.439  -9.382  1.00  0.00    -0.253 OA
ATOM     36  C   UNL     1       3.844   2.233  -8.996  1.00  0.00     0.139 C 
ENDBRANCH  33  34
ENDBRANCH   2  33
BRANCH  16  37
ATOM     37  O   UNL     1      -2.523   3.700   2.041  1.00  0.00    -0.393 OA
ATOM     38  H   UNL     1      -2.159   3.337   2.888  1.00  0.00     0.210 HD
ENDBRANCH  16  37
TORSDOF 7
