REMARK SMILES CCSc1nc2c(c(=O)[nH]1)[C@@H](c1ccc(O)cc1)C1=C(CC(C)(C)CC1=O)N2
REMARK SMILES IDX 4 1 10 2 8 3 9 4 7 5 6 6 5 7 28 8 20 9 19 10 11 11 26 12
REMARK SMILES IDX 27 13 25 14 22 15 21 16 23 17 24 18 3 21 2 22 1 23 12 24
REMARK SMILES IDX 18 25 13 26 17 27 14 28 15 29 16 30
REMARK H PARENT 10 19 28 20 16 31
REMARK Flexibility Score: inf
ROOT
ATOM      1  C   UNL     1      -1.596   4.512  -3.426  1.00  0.00     0.170 A 
ATOM      2  N   UNL     1      -1.815   3.172  -3.539  1.00  0.00    -0.301 N 
ATOM      3  C   UNL     1      -1.737   2.379  -2.449  1.00  0.00     0.257 A 
ATOM      4  O   UNL     1      -1.930   1.177  -2.540  1.00  0.00    -0.269 OA
ATOM      5  C   UNL     1      -1.431   2.960  -1.213  1.00  0.00     0.072 A 
ATOM      6  C   UNL     1      -1.221   4.327  -1.153  1.00  0.00     0.142 A 
ATOM      7  N   UNL     1      -1.308   5.064  -2.265  1.00  0.00    -0.206 NA
ATOM      8  N   UNL     1      -0.927   4.921   0.059  1.00  0.00    -0.343 N 
ATOM      9  C   UNL     1      -1.220   4.284   1.235  1.00  0.00     0.025 C 
ATOM     10  C   UNL     1      -1.420   2.951   1.270  1.00  0.00     0.027 C 
ATOM     11  C   UNL     1      -1.333   2.113   0.020  1.00  0.00     0.094 C 
ATOM     12  C   UNL     1      -1.718   2.295   2.479  1.00  0.00     0.162 C 
ATOM     13  O   UNL     1      -1.911   1.095   2.474  1.00  0.00    -0.294 OA
ATOM     14  C   UNL     1      -1.801   3.050   3.777  1.00  0.00     0.087 C 
ATOM     15  C   UNL     1      -0.890   4.279   3.697  1.00  0.00    -0.023 C 
ATOM     16  C   UNL     1      -1.314   5.118   2.490  1.00  0.00     0.061 C 
ATOM     17  C   UNL     1       0.563   3.832   3.527  1.00  0.00     0.012 C 
ATOM     18  C   UNL     1      -1.026   5.110   4.975  1.00  0.00     0.012 C 
ATOM     19  H   UNL     1      -2.040   2.763  -4.457  1.00  0.00     0.172 HD
ATOM     20  H   UNL     1      -0.485   5.851   0.078  1.00  0.00     0.168 HD
ENDROOT
BRANCH   1  21
ATOM     21  S   UNL     1      -1.699   5.527  -4.863  1.00  0.00    -0.088 SA
BRANCH  21  22
ATOM     22  C   UNL     1      -1.330   7.142  -4.133  1.00  0.00     0.075 C 
ATOM     23  C   UNL     1      -1.364   8.214  -5.225  1.00  0.00     0.016 C 
ENDBRANCH  21  22
ENDBRANCH   1  21
BRANCH  11  24
ATOM     24  C   UNL     1      -0.017   1.378   0.010  1.00  0.00    -0.035 A 
ATOM     25  C   UNL     1       0.002  -0.004   0.002  1.00  0.00     0.008 A 
ATOM     26  C   UNL     1       1.170   2.088   0.002  1.00  0.00     0.008 A 
ATOM     27  C   UNL     1       1.207  -0.680  -0.014  1.00  0.00     0.046 A 
ATOM     28  C   UNL     1       2.377   1.417  -0.013  1.00  0.00     0.046 A 
ATOM     29  C   UNL     1       2.399   0.030  -0.021  1.00  0.00     0.115 A 
BRANCH  29  30
ATOM     30  O   UNL     1       3.586  -0.632  -0.037  1.00  0.00    -0.508 OA
ATOM     31  H   UNL     1       4.074  -0.297   0.756  1.00  0.00     0.293 HD
ENDBRANCH  29  30
ENDBRANCH  11  24
TORSDOF 4
