REMARK SMILES COc1ccc2cc1-c1cc(ccc1O)C[C@@H]1[NH2+]CCc3cc4c(cc31)Oc1c(c(OC)cc3c1[C@H](C2)N(C)CC3)O4
REMARK SMILES IDX 9 1 10 2 11 3 12 4 13 5 14 6 16 7 17 8 39 9 38 10 36 11
REMARK SMILES IDX 40 12 35 13 41 15 34 16 28 17 33 18 29 19 27 20 30 21 42 22
REMARK SMILES IDX 24 23 23 24 25 25 22 26 26 27 21 28 20 29 18 30 19 31 31 34
REMARK SMILES IDX 32 35 8 36 3 37 7 38 4 39 6 40 5 41 2 42 1 43 37 44 15 46
REMARK H PARENT 18 32 18 33 15 47
REMARK Flexibility Score: 80.00
ROOT
ATOM      1  C   UNL     1      -1.010   6.742   3.829  1.00  0.00     0.027 A 
ATOM      2  C   UNL     1      -0.371   5.839   2.984  1.00  0.00     0.016 A 
ATOM      3  C   UNL     1      -0.327   4.494   3.281  1.00  0.00    -0.041 A 
ATOM      4  C   UNL     1      -0.820   4.045   4.494  1.00  0.00     0.008 A 
ATOM      5  C   UNL     1      -1.410   4.936   5.371  1.00  0.00     0.047 A 
ATOM      6  C   UNL     1      -1.531   6.280   5.040  1.00  0.00     0.123 A 
ENDROOT
BRANCH   3   7
ATOM      7  C   UNL     1       0.270   3.530   2.287  1.00  0.00     0.105 C 
BRANCH   7   8
ATOM      8  C   UNL     1      -0.837   2.987   1.377  1.00  0.00     0.218 C 
ATOM      9  C   UNL     1       1.095  11.380  -1.518  1.00  0.00     0.106 C 
ATOM     10  N   UNL     1      -0.226  11.414  -0.794  1.00  0.00    -0.299 NA
ATOM     11  C   UNL     1      -0.650   9.982  -0.700  1.00  0.00     0.095 CG0
ATOM     12  C   UNL     1      -1.190  12.081  -1.722  1.00  0.00     0.089 C 
ATOM     13  C   UNL     1      -0.825   9.341  -2.042  1.00  0.00     0.020 A 
ATOM     14  G   UNL     1      -1.929   9.908   0.123  1.00  0.00     0.000 G0
ATOM     15  C   UNL     1      -1.060  11.578  -3.145  1.00  0.00     0.051 C 
ATOM     16  C   UNL     1      -0.997  10.077  -3.197  1.00  0.00    -0.034 A 
ATOM     17  C   UNL     1      -0.833   7.950  -2.128  1.00  0.00     0.179 A 
ATOM     18  C   UNL     1      -1.101   9.447  -4.426  1.00  0.00     0.054 A 
ATOM     19  C   UNL     1      -0.900   7.313  -3.358  1.00  0.00     0.212 A 
ATOM     20  O   UNL     1      -0.765   7.213  -0.988  1.00  0.00    -0.449 OA
ATOM     21  C   UNL     1      -1.045   8.066  -4.518  1.00  0.00     0.165 A 
ATOM     22  O   UNL     1      -0.835   5.954  -3.436  1.00  0.00    -0.446 OA
ATOM     23  C   UNL     1      -0.814   5.856  -1.057  1.00  0.00     0.170 A 
ATOM     24  C   UNL     1      -0.815   5.217  -2.293  1.00  0.00     0.170 A 
ATOM     25  C   UNL     1      -0.899   5.111   0.102  1.00  0.00     0.061 A 
ATOM     26  C   UNL     1      -0.790   3.834  -2.335  1.00  0.00     0.055 A 
ATOM     27  C   UNL     1      -0.844   3.721   0.069  1.00  0.00     0.017 A 
ATOM     28  C   UNL     1      -0.790   3.099  -1.159  1.00  0.00    -0.029 A 
ATOM     29  C   UNL     1      -0.744   1.593  -1.245  1.00  0.00     0.097 C 
ATOM     30  N   UNL     1      -0.706   1.569   1.186  1.00  0.00    -0.340 N 
ATOM     31  C   UNL     1      -0.013   1.089   0.008  1.00  0.00     0.265 C 
ATOM     32  H   UNL     1      -0.234   1.178   2.014  1.00  0.00     0.346 HD
ATOM     33  H   UNL     1      -1.651   1.159   1.187  1.00  0.00     0.346 HD
BRANCH  21  34
ATOM     34  O   UNL     1      -1.124   7.454  -5.729  1.00  0.00    -0.493 OA
ATOM     35  C   UNL     1      -1.272   8.297  -6.873  1.00  0.00     0.278 C 
ENDBRANCH  21  34
ENDBRANCH   7   8
ENDBRANCH   3   7
BRANCH   1  36
ATOM     36  C   UNL     1      -1.157   8.146   3.387  1.00  0.00     0.028 A 
ATOM     37  C   UNL     1      -0.978   9.230   4.247  1.00  0.00     0.126 A 
ATOM     38  C   UNL     1      -1.435   8.389   2.041  1.00  0.00     0.016 A 
ATOM     39  C   UNL     1      -1.160  10.522   3.773  1.00  0.00     0.047 A 
ATOM     40  C   UNL     1      -1.608   9.675   1.577  1.00  0.00    -0.045 A 
ATOM     41  C   UNL     1      -1.484  10.744   2.447  1.00  0.00     0.007 A 
BRANCH  37  42
ATOM     42  O   UNL     1      -0.593   9.047   5.537  1.00  0.00    -0.496 OA
ATOM     43  C   UNL     1      -0.436  10.219   6.340  1.00  0.00     0.278 C 
ENDBRANCH  37  42
BRANCH  40  44
ATOM     44  C   UNL     1      -1.929   9.908   0.123  1.00  0.00     0.059 CG0
ATOM     45  G   UNL     1      -0.650   9.982  -0.700  1.00  0.00     0.000 G0
ENDBRANCH  40  44
ENDBRANCH   1  36
BRANCH   6  46
ATOM     46  O   UNL     1      -2.186   7.113   5.889  1.00  0.00    -0.507 OA
ATOM     47  H   UNL     1      -2.914   7.500   5.341  1.00  0.00     0.293 HD
ENDBRANCH   6  46
TORSDOF 3
