REMARK SMILES Cc1c(C(=O)NCCC[NH+]2CCCCC2)oc2ccc3c(c12)[C@@H](O)CC1(CCCCC1)O3
REMARK SMILES IDX 7 1 6 2 4 3 5 4 3 6 1 7 2 8 22 9 16 10 21 11 17 12 20 13
REMARK SMILES IDX 23 14 18 15 19 16 32 17 25 18 26 19 31 20 27 21 30 22 28 23
REMARK SMILES IDX 29 24 24 25 8 27 9 28 10 29 11 30 15 31 12 33 14 34 13 35
REMARK H PARENT 6 5 24 26 10 32
REMARK Flexibility Score: inf
ROOT
ATOM      1  C   UNL     1      -1.357  -2.002   0.589  1.00  0.00     0.122 C 
ENDROOT
BRANCH   1   2
ATOM      2  N   UNL     1      -1.335  -0.553   0.371  1.00  0.00    -0.349 N 
ATOM      3  C   UNL     1      -0.159   0.092   0.245  1.00  0.00     0.287 C 
ATOM      4  O   UNL     1       0.886  -0.528   0.312  1.00  0.00    -0.266 OA
ATOM      5  H   UNL     1      -2.219  -0.028   0.314  1.00  0.00     0.163 HD
BRANCH   3   6
ATOM      6  C   UNL     1      -0.137   1.546   0.026  1.00  0.00     0.195 A 
ATOM      7  C   UNL     1       2.411   1.815  -0.077  1.00  0.00     0.049 C 
ATOM      8  C   UNL     1       0.984   2.299  -0.114  1.00  0.00     0.009 A 
ATOM      9  C   UNL     1       0.527   3.674  -0.310  1.00  0.00     0.034 A 
ATOM     10  O   UNL     1      -1.229   2.332  -0.071  1.00  0.00    -0.451 OA
ATOM     11  C   UNL     1       1.183   4.895  -0.507  1.00  0.00     0.034 A 
ATOM     12  C   UNL     1      -0.877   3.619  -0.267  1.00  0.00     0.136 A 
ATOM     13  C   UNL     1       0.442   6.045  -0.664  1.00  0.00     0.126 A 
ATOM     14  C   UNL     1       2.690   4.918  -0.537  1.00  0.00     0.153 C 
ATOM     15  C   UNL     1      -1.607   4.791  -0.425  1.00  0.00     0.051 A 
ATOM     16  C   UNL     1      -0.953   5.986  -0.620  1.00  0.00     0.051 A 
ATOM     17  O   UNL     1       1.030   7.254  -0.866  1.00  0.00    -0.487 OA
ATOM     18  C   UNL     1       3.176   6.219  -1.180  1.00  0.00     0.085 C 
ATOM     19  C   UNL     1       2.413   7.386  -0.542  1.00  0.00     0.112 C 
ATOM     20  C   UNL     1       2.595   7.345   0.976  1.00  0.00     0.049 C 
ATOM     21  C   UNL     1       2.950   8.709  -1.089  1.00  0.00     0.049 C 
ATOM     22  C   UNL     1       1.830   8.508   1.612  1.00  0.00     0.004 C 
ATOM     23  C   UNL     1       2.185   9.871  -0.452  1.00  0.00     0.004 C 
ATOM     24  C   UNL     1       2.369   9.832   1.066  1.00  0.00     0.000 C 
BRANCH  14  25
ATOM     25  O   UNL     1       3.168   3.806  -1.296  1.00  0.00    -0.388 OA
ATOM     26  H   UNL     1       2.819   3.862  -2.221  1.00  0.00     0.211 HD
ENDBRANCH  14  25
ENDBRANCH   3   6
ENDBRANCH   1   2
BRANCH   1  27
ATOM     27  C   UNL     1      -2.806  -2.480   0.696  1.00  0.00     0.083 C 
BRANCH  27  28
ATOM     28  C   UNL     1      -2.828  -3.993   0.924  1.00  0.00     0.264 C 
BRANCH  28  29
ATOM     29  N   UNL     1      -4.234  -4.441   1.003  1.00  0.00    -0.335 N 
ATOM     30  C   UNL     1      -4.867  -3.904   2.225  1.00  0.00     0.262 C 
ATOM     31  C   UNL     1      -4.293  -5.918   1.008  1.00  0.00     0.262 C 
ATOM     32  H   UNL     1      -4.745  -4.090   0.180  1.00  0.00     0.348 HD
ATOM     33  C   UNL     1      -6.350  -4.282   2.224  1.00  0.00     0.062 C 
ATOM     34  C   UNL     1      -5.758  -6.357   0.970  1.00  0.00     0.062 C 
ATOM     35  C   UNL     1      -6.482  -5.808   2.202  1.00  0.00     0.012 C 
ENDBRANCH  28  29
ENDBRANCH  27  28
ENDBRANCH   1  27
TORSDOF 6
