REMARK SMILES CC[C@@H](C)C(=O)N[C@H]1CC=C2C[C@H]3C(=O)C[C@]4(C)[C@@H]([C@H](C)[NH+](C)C)[C@H](O)C[C@@]4(C)[C@@H]3CC[C@H]2[C@]1(C)CO
REMARK SMILES IDX 8 1 9 2 10 3 11 4 33 5 34 6 35 7 7 8 5 9 6 10 3 12 4 13 2 14
REMARK SMILES IDX 1 15 36 16 37 17 32 19 31 20 12 22 13 23 14 24 30 25 16 26
REMARK SMILES IDX 15 27 28 28 17 30 27 31 29 32 19 33 18 34 25 35 20 36 21 37
REMARK SMILES IDX 22 38 23 39 24 40 26 42
REMARK H PARENT 7 11 37 18 22 41 26 43
REMARK Flexibility Score: 90.00
ROOT
ATOM      1  C   UNL     1      -0.851  -4.660   9.890  1.00  0.00     0.094 C 
ATOM      2  C   UNL     1       0.670  -4.505   9.911  1.00  0.00     0.053 C 
ATOM      3  C   UNL     1       1.073  -3.167   9.384  1.00  0.00    -0.025 C 
ATOM      4  C   UNL     1       0.281  -2.117   9.293  1.00  0.00    -0.070 C 
ATOM      5  C   UNL     1      -1.153  -2.203   9.651  1.00  0.00     0.025 C 
ATOM      6  C   UNL     1      -1.455  -3.423  10.518  1.00  0.00     0.018 C 
ATOM      7  C   UNL     1      -2.970  -3.615  10.623  1.00  0.00     0.016 C 
ENDROOT
BRANCH   1   8
ATOM      8  N   UNL     1      -1.315  -4.791   8.507  1.00  0.00    -0.352 N 
ATOM      9  C   UNL     1      -2.414  -5.520   8.230  1.00  0.00     0.223 C 
ATOM     10  O   UNL     1      -3.019  -6.068   9.127  1.00  0.00    -0.275 OA
ATOM     11  H   UNL     1      -0.801  -4.325   7.745  1.00  0.00     0.163 HD
BRANCH   9  12
ATOM     12  C   UNL     1      -2.891  -5.654   6.807  1.00  0.00     0.075 C 
ATOM     13  C   UNL     1      -3.216  -4.269   6.246  1.00  0.00     0.018 C 
BRANCH  12  14
ATOM     14  C   UNL     1      -4.147  -6.527   6.771  1.00  0.00     0.010 C 
ATOM     15  C   UNL     1      -4.560  -6.766   5.317  1.00  0.00     0.005 C 
ENDBRANCH  12  14
ENDBRANCH   9  12
ENDBRANCH   1   8
BRANCH   6  16
ATOM     16  C   UNL     1      -0.864  -3.218  11.915  1.00  0.00     0.165 C 
BRANCH  16  17
ATOM     17  O   UNL     1      -1.149  -4.361  12.724  1.00  0.00    -0.396 OA
ATOM     18  H   UNL     1      -0.748  -5.166  12.312  1.00  0.00     0.210 HD
ENDBRANCH  16  17
ENDBRANCH   6  16
BRANCH   5  19
ATOM     19  C   UNL     1      -2.051  -2.249   8.418  1.00  0.00     0.009 C 
BRANCH  19  20
ATOM     20  C   UNL     1      -2.119  -0.922   7.742  1.00  0.00     0.005 CG0
ATOM     21  G   UNL     1      -0.827  -0.478   7.082  1.00  0.00     0.000 G0
ENDBRANCH  19  20
ENDBRANCH   5  19
BRANCH   4  22
ATOM     22  C   UNL     1       0.954  -0.826   8.858  1.00  0.00     0.042 C 
BRANCH  22  23
ATOM     23  C   UNL     1       0.138   0.155   8.045  1.00  0.00     0.064 C 
ATOM     24  C   UNL     1       1.128   1.090   7.383  1.00  0.00     0.137 C 
ATOM     25  C   UNL     1      -0.827  -0.478   7.082  1.00  0.00     0.006 CG0
ATOM     26  C   UNL     1       0.765   1.924   6.174  1.00  0.00     0.083 C 
ATOM     27  O   UNL     1       2.244   1.173   7.836  1.00  0.00    -0.299 OA
ATOM     28  C   UNL     1      -1.218   0.494   5.981  1.00  0.00    -0.020 C 
ATOM     29  G   UNL     1      -2.119  -0.922   7.742  1.00  0.00     0.000 G0
ATOM     30  C   UNL     1       0.050   0.963   5.226  1.00  0.00    -0.009 C 
ATOM     31  C   UNL     1      -2.066  -0.102   4.851  1.00  0.00     0.040 C 
ATOM     32  C   UNL     1      -1.930   1.697   6.604  1.00  0.00     0.012 C 
ATOM     33  C   UNL     1      -0.516   1.622   3.966  1.00  0.00     0.083 C 
ATOM     34  C   UNL     1       0.949  -0.222   4.868  1.00  0.00     0.013 C 
ATOM     35  C   UNL     1      -1.859   0.905   3.689  1.00  0.00     0.124 C 
BRANCH  33  36
ATOM     36  C   UNL     1       0.442   1.423   2.790  1.00  0.00     0.186 C 
ATOM     37  C   UNL     1       1.742   2.186   3.056  1.00  0.00     0.075 C 
BRANCH  36  38
ATOM     38  N   UNL     1      -0.206   1.917   1.558  1.00  0.00    -0.337 N 
ATOM     39  C   UNL     1       0.601   1.545   0.377  1.00  0.00     0.332 C 
ATOM     40  C   UNL     1      -0.360   3.386   1.622  1.00  0.00     0.332 C 
ATOM     41  H   UNL     1      -1.139   1.487   1.474  1.00  0.00     0.347 HD
ENDBRANCH  36  38
ENDBRANCH  33  36
BRANCH  35  42
ATOM     42  O   UNL     1      -2.926   1.856   3.668  1.00  0.00    -0.393 OA
ATOM     43  H   UNL     1      -2.946   2.344   4.529  1.00  0.00     0.210 HD
ENDBRANCH  35  42
ENDBRANCH  22  23
ENDBRANCH   4  22
TORSDOF 8
