REMARK SMILES COc1ccc(CCN2C(=O)c3[nH]nc(-c4cc(C)cc(C)c4O)c3[C@H]2c2ccc(C(C)C)cc2)cc1
REMARK SMILES IDX 8 1 9 2 15 3 14 4 25 5 13 6 26 7 12 8 10 10 11 11 16 12
REMARK SMILES IDX 19 13 18 14 17 15 20 16 21 17 23 18 22 19 24 20 27 22 35 23
REMARK SMILES IDX 28 24 34 25 29 26 30 27 31 28 32 29 33 30 7 31 6 32 36 33
REMARK SMILES IDX 5 34 37 35 4 36 3 37 2 38 1 39
REMARK H PARENT 13 9 24 21
REMARK Flexibility Score: inf
ROOT
ATOM      1  C   UNL     1      -1.173  -0.878   0.009  1.00  0.00     0.125 C 
ENDROOT
BRANCH   1   2
ATOM      2  N   UNL     1       0.002  -0.004   0.002  1.00  0.00    -0.326 N 
ATOM      3  C   UNL     1       3.514   1.374  -0.024  1.00  0.00     0.102 A 
ATOM      4  N   UNL     1       3.365   2.684  -0.016  1.00  0.00    -0.174 NA
ATOM      5  C   UNL     1       2.235   0.808  -0.015  1.00  0.00     0.038 A 
ATOM      6  N   UNL     1       2.119   3.001  -0.002  1.00  0.00    -0.272 N 
ATOM      7  C   UNL     1       1.403  -0.446  -0.014  1.00  0.00     0.151 C 
ATOM      8  C   UNL     1       1.352   1.871  -0.001  1.00  0.00     0.129 A 
ATOM      9  H   UNL     1       1.754   3.964   0.006  1.00  0.00     0.190 HD
ATOM     10  C   UNL     1      -0.016   1.341   0.009  1.00  0.00     0.273 C 
ATOM     11  O   UNL     1      -1.024   2.022   0.018  1.00  0.00    -0.267 OA
BRANCH   3  12
ATOM     12  C   UNL     1       4.801   0.636  -0.040  1.00  0.00     0.045 A 
ATOM     13  C   UNL     1       6.016  -2.945  -0.072  1.00  0.00     0.044 C 
ATOM     14  C   UNL     1       6.009  -1.438  -0.063  1.00  0.00    -0.050 A 
ATOM     15  C   UNL     1       4.809  -0.756  -0.042  1.00  0.00     0.017 A 
ATOM     16  C   UNL     1       7.205  -0.743  -0.070  1.00  0.00     0.010 A 
ATOM     17  C   UNL     1       7.209   0.639  -0.062  1.00  0.00    -0.008 A 
ATOM     18  C   UNL     1       6.011   1.336  -0.047  1.00  0.00     0.127 A 
ATOM     19  C   UNL     1       8.516   1.389  -0.070  1.00  0.00     0.048 C 
BRANCH  18  20
ATOM     20  O   UNL     1       6.013   2.695  -0.039  1.00  0.00    -0.507 OA
ATOM     21  H   UNL     1       6.537   2.953  -0.839  1.00  0.00     0.293 HD
ENDBRANCH  18  20
ENDBRANCH   3  12
BRANCH   7  22
ATOM     22  C   UNL     1       1.702  -1.266   1.215  1.00  0.00    -0.021 A 
ATOM     23  C   UNL     1       2.498  -2.391   1.117  1.00  0.00     0.006 A 
ATOM     24  C   UNL     1       1.185  -0.889   2.440  1.00  0.00     0.006 A 
ATOM     25  C   UNL     1       2.773  -3.143   2.244  1.00  0.00     0.004 A 
ATOM     26  C   UNL     1       1.455  -1.644   3.566  1.00  0.00     0.004 A 
ATOM     27  C   UNL     1       2.251  -2.770   3.469  1.00  0.00    -0.045 A 
BRANCH  27  28
ATOM     28  C   UNL     1       2.550  -3.590   4.697  1.00  0.00     0.013 C 
ATOM     29  C   UNL     1       3.267  -2.718   5.730  1.00  0.00     0.012 C 
ATOM     30  C   UNL     1       1.241  -4.113   5.292  1.00  0.00     0.012 C 
ENDBRANCH  27  28
ENDBRANCH   7  22
ENDBRANCH   1   2
BRANCH   1  31
ATOM     31  C   UNL     1      -1.597  -1.175  -1.431  1.00  0.00     0.057 C 
BRANCH  31  32
ATOM     32  C   UNL     1      -2.806  -2.075  -1.424  1.00  0.00    -0.046 A 
ATOM     33  C   UNL     1      -4.074  -1.525  -1.409  1.00  0.00     0.007 A 
ATOM     34  C   UNL     1      -2.645  -3.448  -1.438  1.00  0.00     0.007 A 
ATOM     35  C   UNL     1      -5.184  -2.348  -1.402  1.00  0.00     0.046 A 
ATOM     36  C   UNL     1      -3.751  -4.275  -1.426  1.00  0.00     0.046 A 
ATOM     37  C   UNL     1      -5.025  -3.726  -1.411  1.00  0.00     0.118 A 
BRANCH  37  38
ATOM     38  O   UNL     1      -6.116  -4.537  -1.404  1.00  0.00    -0.497 OA
ATOM     39  C   UNL     1      -5.877  -5.946  -1.413  1.00  0.00     0.278 C 
ENDBRANCH  37  38
ENDBRANCH  31  32
ENDBRANCH   1  31
TORSDOF 8
