REMARK SMILES N#Cc1c(N)nc2sc(C(=O)c3ccc4c(c3)OCCO4)c(N)c2c1C1CC1
REMARK SMILES IDX 9 1 22 2 24 3 25 4 3 5 4 6 7 7 8 8 6 9 10 10 11 11 12 12
REMARK SMILES IDX 13 13 14 14 17 15 15 16 16 17 21 18 18 19 20 20 19 21 23 22
REMARK SMILES IDX 26 25 28 26 27 27 5 28 2 31 1 32
REMARK H PARENT 23 23 23 24 5 29 5 30
REMARK Flexibility Score: inf
ROOT
ATOM      1  C   UNL     1       3.726  -2.157  -0.453  1.00  0.00     0.101 A 
ATOM      2  C   UNL     1       4.808  -2.950  -0.122  1.00  0.00     0.064 A 
ATOM      3  C   UNL     1       4.560  -4.336   0.244  1.00  0.00     0.040 A 
ATOM      4  C   UNL     1       5.500  -5.326   0.617  1.00  0.00    -0.011 A 
ATOM      5  C   UNL     1       5.047  -6.600   0.932  1.00  0.00     0.098 A 
ATOM      6  C   UNL     1       3.667  -6.890   0.878  1.00  0.00     0.143 A 
ATOM      7  C   UNL     1       3.201  -4.730   0.222  1.00  0.00     0.128 A 
ATOM      8  S   UNL     1       2.337  -3.258  -0.270  1.00  0.00    -0.110 S 
ATOM      9  N   UNL     1       2.729  -5.966   0.524  1.00  0.00    -0.219 NA
ENDROOT
BRANCH   1  10
ATOM     10  C   UNL     1       3.721  -0.797  -0.837  1.00  0.00     0.205 C 
ATOM     11  O   UNL     1       4.774  -0.218  -1.040  1.00  0.00    -0.288 OA
BRANCH  10  12
ATOM     12  C   UNL     1       2.439  -0.078  -0.992  1.00  0.00     0.027 A 
ATOM     13  C   UNL     1       2.361   1.042  -1.823  1.00  0.00     0.016 A 
ATOM     14  C   UNL     1       1.165   1.712  -1.964  1.00  0.00     0.051 A 
ATOM     15  C   UNL     1       1.303  -0.515  -0.308  1.00  0.00     0.062 A 
ATOM     16  C   UNL     1       0.035   1.278  -1.283  1.00  0.00     0.161 A 
ATOM     17  C   UNL     1       0.106   0.160  -0.455  1.00  0.00     0.162 A 
ATOM     18  O   UNL     1      -1.133   1.959  -1.432  1.00  0.00    -0.486 OA
ATOM     19  O   UNL     1      -0.995  -0.282   0.213  1.00  0.00    -0.486 OA
ATOM     20  C   UNL     1      -2.329   1.278  -1.038  1.00  0.00     0.271 C 
ATOM     21  C   UNL     1      -2.086   0.636   0.335  1.00  0.00     0.271 C 
ENDBRANCH  10  12
ENDBRANCH   1  10
BRANCH   2  22
ATOM     22  N   UNL     1       6.095  -2.438  -0.141  1.00  0.00    -0.397 N 
ATOM     23  H   UNL     1       6.244  -1.454  -0.404  1.00  0.00     0.156 HD
ATOM     24  H   UNL     1       6.897  -3.035   0.107  1.00  0.00     0.156 HD
ENDBRANCH   2  22
BRANCH   4  25
ATOM     25  C   UNL     1       6.971  -5.003   0.671  1.00  0.00     0.021 C 
ATOM     26  C   UNL     1       7.437  -4.007   1.735  1.00  0.00     0.009 C 
ATOM     27  C   UNL     1       7.758  -5.496   1.887  1.00  0.00     0.009 C 
ENDBRANCH   4  25
BRANCH   6  28
ATOM     28  N   UNL     1       3.214  -8.157   1.192  1.00  0.00    -0.383 N 
ATOM     29  H   UNL     1       3.884  -8.890   1.465  1.00  0.00     0.158 HD
ATOM     30  H   UNL     1       2.207  -8.369   1.152  1.00  0.00     0.158 HD
ENDBRANCH   6  28
BRANCH   5  31
ATOM     31  C   UNL     1       5.979  -7.619   1.312  1.00  0.00     0.103 C 
ATOM     32  N   UNL     1       6.718  -8.427   1.614  1.00  0.00    -0.192 NA
ENDBRANCH   5  31
TORSDOF 6
