REMARK SMILES COc1ccc(-n2nc(N)c3c2C(=O)N(c2ccc(-c4ccccc4C[N@@H+]4CC[C@@H](O)C4)cc2)CC3)cc1
REMARK SMILES IDX 16 1 17 2 18 3 19 4 33 5 34 6 15 7 7 8 8 9 12 10 9 11 13 12
REMARK SMILES IDX 11 13 14 14 36 15 35 16 6 17 3 18 38 19 4 20 37 21 5 22 2 23
REMARK SMILES IDX 1 24 10 25 20 28 25 29 21 30 24 31 22 32 23 33 26 34 27 35
REMARK SMILES IDX 28 36 32 37 29 39 30 40 31 41
REMARK H PARENT 10 26 10 27 27 38 31 42
REMARK Flexibility Score: inf
ROOT
ATOM      1  C   UNL     1       1.377   6.543   0.354  1.00  0.00     0.044 A 
ATOM      2  C   UNL     1       2.307   6.108   1.291  1.00  0.00     0.027 A 
ATOM      3  C   UNL     1       2.534   4.759   1.464  1.00  0.00     0.011 A 
ATOM      4  C   UNL     1       1.829   3.831   0.698  1.00  0.00    -0.018 A 
ATOM      5  C   UNL     1       0.901   4.270  -0.245  1.00  0.00     0.011 A 
ATOM      6  C   UNL     1       0.673   5.620  -0.410  1.00  0.00     0.027 A 
ENDROOT
BRANCH   1   7
ATOM      7  N   UNL     1       1.149   7.910   0.180  1.00  0.00    -0.307 N 
ATOM      8  N   UNL     1       2.637  11.154  -0.841  1.00  0.00    -0.226 N 
ATOM      9  N   UNL     1       2.016  12.349  -0.440  1.00  0.00    -0.150 NA
ATOM     10  C   UNL     1       1.953  10.131  -0.281  1.00  0.00     0.138 A 
ATOM     11  C   UNL     1       1.000  12.059   0.349  1.00  0.00     0.150 A 
ATOM     12  C   UNL     1       2.136   8.672  -0.345  1.00  0.00     0.277 C 
ATOM     13  C   UNL     1       0.927  10.682   0.482  1.00  0.00     0.029 A 
ATOM     14  O   UNL     1       3.127   8.176  -0.847  1.00  0.00    -0.267 OA
ATOM     15  C   UNL     1      -0.018   9.815   1.272  1.00  0.00     0.064 C 
ATOM     16  C   UNL     1      -0.144   8.460   0.567  1.00  0.00     0.131 C 
BRANCH   8  17
ATOM     17  C   UNL     1       3.759  11.042  -1.671  1.00  0.00     0.066 A 
ATOM     18  C   UNL     1       5.978  10.822  -3.312  1.00  0.00     0.119 A 
ATOM     19  C   UNL     1       5.946  11.786  -2.314  1.00  0.00     0.048 A 
ATOM     20  C   UNL     1       4.898   9.969  -3.488  1.00  0.00     0.048 A 
ATOM     21  C   UNL     1       4.838  11.900  -1.499  1.00  0.00     0.032 A 
ATOM     22  C   UNL     1       3.792  10.078  -2.670  1.00  0.00     0.032 A 
BRANCH  18  23
ATOM     23  O   UNL     1       7.068  10.714  -4.118  1.00  0.00    -0.497 OA
ATOM     24  C   UNL     1       8.143  11.625  -3.881  1.00  0.00     0.278 C 
ENDBRANCH  18  23
ENDBRANCH   8  17
BRANCH  11  25
ATOM     25  N   UNL     1       0.140  12.985   0.951  1.00  0.00    -0.382 N 
ATOM     26  H   UNL     1      -0.607  12.589   1.540  1.00  0.00     0.158 HD
ATOM     27  H   UNL     1       0.235  14.003   0.821  1.00  0.00     0.158 HD
ENDBRANCH  11  25
ENDBRANCH   1   7
BRANCH   4  28
ATOM     28  C   UNL     1       2.072   2.379   0.882  1.00  0.00    -0.010 A 
ATOM     29  C   UNL     1       1.014   1.528   1.197  1.00  0.00     0.014 A 
ATOM     30  C   UNL     1       3.358   1.861   0.739  1.00  0.00     0.009 A 
ATOM     31  C   UNL     1       1.246   0.178   1.367  1.00  0.00     0.010 A 
ATOM     32  C   UNL     1       3.578   0.510   0.912  1.00  0.00     0.001 A 
ATOM     33  C   UNL     1       2.524  -0.330   1.225  1.00  0.00     0.001 A 
BRANCH  29  34
ATOM     34  C   UNL     1      -0.380   2.080   1.346  1.00  0.00     0.299 C 
BRANCH  34  35
ATOM     35  N   UNL     1      -0.479   2.816   2.634  1.00  0.00    -0.329 N 
ATOM     36  C   UNL     1      -0.554   1.866   3.759  1.00  0.00     0.265 C 
ATOM     37  C   UNL     1      -1.688   3.659   2.642  1.00  0.00     0.294 C 
ATOM     38  H   UNL     1       0.358   3.406   2.735  1.00  0.00     0.348 HD
ATOM     39  C   UNL     1      -1.474   2.564   4.792  1.00  0.00     0.099 C 
ATOM     40  C   UNL     1      -2.523   3.240   3.871  1.00  0.00     0.174 C 
BRANCH  40  41
ATOM     41  O   UNL     1      -3.093   4.385   4.509  1.00  0.00    -0.387 OA
ATOM     42  H   UNL     1      -2.371   5.029   4.717  1.00  0.00     0.211 HD
ENDBRANCH  40  41
ENDBRANCH  34  35
ENDBRANCH  29  34
ENDBRANCH   4  28
TORSDOF 8
