REMARK SMILES CCOC(=O)Nc1cc(N[C@@H](C)CCC[NH+](CC)CC)c2ncc(-c3ccc(Br)cc3)nc2n1
REMARK SMILES IDX 11 1 12 2 13 3 14 4 15 5 16 6 17 8 18 9 19 10 20 11 10 12
REMARK SMILES IDX 9 14 21 15 8 16 33 17 22 18 7 19 34 20 32 21 23 22 24 23
REMARK SMILES IDX 6 24 4 25 5 27 3 28 2 29 1 30 25 31 31 32 26 33 30 34 27 35
REMARK SMILES IDX 28 36 29 37
REMARK H PARENT 16 7 10 13 6 26
REMARK Flexibility Score: inf
ROOT
ATOM      1  C   UNL     1       1.602   2.685   1.271  1.00  0.00     0.076 C 
ATOM      2  C   UNL     1       1.302   3.490   2.537  1.00  0.00     0.031 C 
ENDROOT
BRANCH   1   3
ATOM      3  C   UNL     1       0.309   2.478   0.480  1.00  0.00     0.030 C 
BRANCH   3   4
ATOM      4  C   UNL     1       0.585   1.569  -0.719  1.00  0.00     0.063 C 
BRANCH   4   5
ATOM      5  C   UNL     1      -0.708   1.362  -1.510  1.00  0.00     0.262 C 
BRANCH   5   6
ATOM      6  N   UNL     1      -0.443   0.489  -2.662  1.00  0.00    -0.335 N 
ATOM      7  H   UNL     1       0.358   0.880  -3.178  1.00  0.00     0.348 HD
BRANCH   6   8
ATOM      8  C   UNL     1      -0.081  -0.865  -2.224  1.00  0.00     0.258 C 
ATOM      9  C   UNL     1      -1.253  -1.486  -1.461  1.00  0.00     0.071 C 
ENDBRANCH   6   8
BRANCH   6  10
ATOM     10  C   UNL     1      -1.595   0.457  -3.574  1.00  0.00     0.258 C 
ATOM     11  C   UNL     1      -1.176  -0.177  -4.902  1.00  0.00     0.071 C 
ENDBRANCH   6  10
ENDBRANCH   5   6
ENDBRANCH   4   5
ENDBRANCH   3   4
ENDBRANCH   1   3
BRANCH   1  12
ATOM     12  N   UNL     1       2.568   3.415   0.446  1.00  0.00    -0.381 N 
ATOM     13  H   UNL     1       2.237   4.024  -0.316  1.00  0.00     0.160 HD
BRANCH  12  14
ATOM     14  C   UNL     1       3.927   3.285   0.690  1.00  0.00     0.068 A 
ATOM     15  C   UNL     1       4.879   3.982  -0.096  1.00  0.00     0.131 A 
ATOM     16  C   UNL     1       4.392   2.477   1.711  1.00  0.00     0.075 A 
ATOM     17  C   UNL     1       6.257   3.819   0.191  1.00  0.00     0.182 A 
ATOM     18  N   UNL     1       4.494   4.782  -1.093  1.00  0.00    -0.248 NA
ATOM     19  C   UNL     1       5.766   2.362   1.928  1.00  0.00     0.140 A 
ATOM     20  N   UNL     1       6.641   3.017   1.190  1.00  0.00    -0.209 NA
ATOM     21  N   UNL     1       7.162   4.472  -0.545  1.00  0.00    -0.225 NA
ATOM     22  C   UNL     1       5.394   5.417  -1.807  1.00  0.00     0.141 A 
ATOM     23  C   UNL     1       6.763   5.261  -1.530  1.00  0.00     0.091 A 
BRANCH  19  24
ATOM     24  N   UNL     1       6.224   1.542   2.954  1.00  0.00    -0.275 N 
ATOM     25  C   UNL     1       7.539   1.500   3.248  1.00  0.00     0.412 C 
ATOM     26  H   UNL     1       5.559   0.966   3.489  1.00  0.00     0.175 HD
ATOM     27  O   UNL     1       8.312   2.245   2.679  1.00  0.00    -0.224 OA
BRANCH  25  28
ATOM     28  O   UNL     1       7.995   0.634   4.171  1.00  0.00    -0.450 OA
BRANCH  28  29
ATOM     29  C   UNL     1       9.423   0.644   4.437  1.00  0.00     0.231 C 
ATOM     30  C   UNL     1       9.750  -0.400   5.507  1.00  0.00     0.049 C 
ENDBRANCH  28  29
ENDBRANCH  25  28
ENDBRANCH  19  24
BRANCH  23  31
ATOM     31  C   UNL     1       7.766   5.985  -2.346  1.00  0.00     0.002 A 
ATOM     32  C   UNL     1       9.126   5.836  -2.077  1.00  0.00     0.011 A 
ATOM     33  C   UNL     1       7.353   6.814  -3.388  1.00  0.00     0.011 A 
ATOM     34  C   UNL     1      10.056   6.512  -2.840  1.00  0.00     0.016 A 
ATOM     35  C   UNL     1       8.291   7.489  -4.142  1.00  0.00     0.016 A 
ATOM     36  C   UNL     1       9.640   7.337  -3.871  1.00  0.00     0.018 A 
ATOM     37  Br  UNL     1      10.920   8.261  -4.912  1.00  0.00    -0.051 Br
ENDBRANCH  23  31
ENDBRANCH  12  14
ENDBRANCH   1  12
TORSDOF 12
