REMARK SMILES CC(=O)N1C[C@@H](C(=O)NC[C@H]2C[C@H]3c4ccccc4[C@@H]2c2ccccc23)Oc2ccccc21
REMARK SMILES IDX 7 1 8 2 9 3 6 5 4 6 33 7 5 8 28 9 32 10 27 11 29 12 31 13
REMARK SMILES IDX 30 14 2 15 1 16 3 17 10 18 11 19 20 20 12 21 21 22 19 23
REMARK SMILES IDX 13 24 26 25 22 26 18 27 14 28 25 29 23 30 17 31 15 32 24 33
REMARK SMILES IDX 16 34
REMARK H PARENT 9 4
REMARK Flexibility Score: inf
ROOT
ATOM      1  C   UNL     1      -4.785   0.940   1.075  1.00  0.00     0.262 C 
ATOM      2  O   UNL     1      -4.726  -0.178   0.609  1.00  0.00    -0.271 OA
ATOM      3  N   UNL     1      -5.955   1.413   1.547  1.00  0.00    -0.353 N 
ATOM      4  H   UNL     1      -6.005   2.363   1.942  1.00  0.00     0.163 HD
ENDROOT
BRANCH   1   5
ATOM      5  C   UNL     1      -3.549   1.800   1.126  1.00  0.00     0.281 C 
ATOM      6  N   UNL     1      -2.487   3.805   0.261  1.00  0.00    -0.305 N 
ATOM      7  C   UNL     1      -1.272   3.099   0.220  1.00  0.00     0.086 A 
ATOM      8  C   UNL     1      -3.735   3.023   0.216  1.00  0.00     0.181 C 
ATOM      9  C   UNL     1      -1.266   1.722   0.425  1.00  0.00     0.144 A 
ATOM     10  C   UNL     1      -0.086   3.772  -0.025  1.00  0.00     0.030 A 
ATOM     11  O   UNL     1      -2.423   1.050   0.665  1.00  0.00    -0.477 OA
ATOM     12  C   UNL     1      -0.064   1.032   0.395  1.00  0.00     0.049 A 
ATOM     13  C   UNL     1       1.107   3.074  -0.060  1.00  0.00     0.002 A 
ATOM     14  C   UNL     1       1.116   1.708   0.150  1.00  0.00     0.004 A 
BRANCH   6  15
ATOM     15  C   UNL     1      -2.510   5.150   0.338  1.00  0.00     0.224 C 
ATOM     16  C   UNL     1      -3.821   5.888   0.243  1.00  0.00     0.115 C 
ATOM     17  O   UNL     1      -1.476   5.767   0.485  1.00  0.00    -0.275 OA
ENDBRANCH   6  15
ENDBRANCH   1   5
BRANCH   3  18
ATOM     18  C   UNL     1      -7.157   0.577   1.497  1.00  0.00     0.120 C 
BRANCH  18  19
ATOM     19  C   UNL     1      -8.338   1.346   2.092  1.00  0.00     0.021 C 
ATOM     20  C   UNL     1      -9.556   0.401   2.194  1.00  0.00     0.055 C 
ATOM     21  C   UNL     1      -8.644   2.552   1.208  1.00  0.00     0.019 C 
ATOM     22  C   UNL     1     -10.700   1.271   2.692  1.00  0.00    -0.036 A 
ATOM     23  C   UNL     1      -9.918   0.054   0.759  1.00  0.00    -0.036 A 
ATOM     24  C   UNL     1     -10.087   2.497   0.660  1.00  0.00     0.050 C 
ATOM     25  C   UNL     1     -10.979   2.372   1.886  1.00  0.00    -0.037 A 
ATOM     26  C   UNL     1     -11.422   1.035   3.826  1.00  0.00     0.004 A 
ATOM     27  C   UNL     1      -9.978  -1.214   0.255  1.00  0.00     0.004 A 
ATOM     28  C   UNL     1     -10.198   1.155  -0.047  1.00  0.00    -0.037 A 
ATOM     29  C   UNL     1     -11.981   3.241   2.212  1.00  0.00     0.004 A 
ATOM     30  C   UNL     1     -12.443   1.914   4.165  1.00  0.00     0.000 A 
ATOM     31  C   UNL     1     -10.323  -1.388  -1.079  1.00  0.00     0.000 A 
ATOM     32  C   UNL     1     -10.538   0.991  -1.360  1.00  0.00     0.004 A 
ATOM     33  C   UNL     1     -12.720   3.007   3.365  1.00  0.00     0.000 A 
ATOM     34  C   UNL     1     -10.600  -0.295  -1.879  1.00  0.00     0.000 A 
ENDBRANCH  18  19
ENDBRANCH   3  18
TORSDOF 4
