REMARK SMILES O=C(CSc1nc2ccccc2c(=O)n1-c1ccc(Cl)c(Cl)c1)NC(=O)c1ccc[nH]1
REMARK SMILES IDX 3 1 4 2 5 3 10 4 11 5 9 6 12 7 8 8 7 9 13 10 6 11 14 12
REMARK SMILES IDX 15 13 16 14 23 15 17 16 21 17 18 18 19 19 22 20 20 21 2 22
REMARK SMILES IDX 1 23 24 24 25 25 26 27 27 28 31 29 28 30 30 31 29 33
REMARK H PARENT 24 26 31 32
REMARK Flexibility Score: inf
ROOT
ATOM      1  C   UNL     1       2.763  -2.492   1.597  1.00  0.00     0.178 C 
ENDROOT
BRANCH   1   2
ATOM      2  S   UNL     1       1.039  -2.234   1.109  1.00  0.00    -0.077 SA
BRANCH   2   3
ATOM      3  C   UNL     1       1.139  -0.589   0.487  1.00  0.00     0.176 A 
ATOM      4  C   UNL     1       2.688   3.867  -0.910  1.00  0.00     0.001 A 
ATOM      5  C   UNL     1       1.462   3.261  -0.949  1.00  0.00     0.016 A 
ATOM      6  C   UNL     1       3.794   3.200  -0.400  1.00  0.00     0.002 A 
ATOM      7  C   UNL     1       1.325   1.959  -0.469  1.00  0.00     0.066 A 
ATOM      8  C   UNL     1       3.688   1.924   0.075  1.00  0.00     0.029 A 
ATOM      9  C   UNL     1       2.449   1.277   0.050  1.00  0.00     0.079 A 
ATOM     10  C   UNL     1       0.034   1.258  -0.485  1.00  0.00     0.266 A 
ATOM     11  N   UNL     1       2.300   0.018   0.510  1.00  0.00    -0.223 NA
ATOM     12  O   UNL     1      -0.968   1.792  -0.924  1.00  0.00    -0.268 OA
ATOM     13  N   UNL     1       0.002  -0.004   0.002  1.00  0.00    -0.255 N 
BRANCH  13  14
ATOM     14  C   UNL     1      -1.204  -0.717   0.010  1.00  0.00     0.053 A 
ATOM     15  C   UNL     1      -2.051  -0.639   1.107  1.00  0.00     0.049 A 
ATOM     16  C   UNL     1      -1.558  -1.497  -1.083  1.00  0.00     0.028 A 
ATOM     17  C   UNL     1      -3.240  -1.343   1.112  1.00  0.00     0.061 A 
ATOM     18  C   UNL     1      -2.745  -2.204  -1.071  1.00  0.00     0.024 A 
ATOM     19  C   UNL     1      -3.587  -2.125   0.024  1.00  0.00     0.059 A 
ATOM     20  Cl  UNL     1      -4.300  -1.246   2.484  1.00  0.00    -0.083 Cl
ATOM     21  Cl  UNL     1      -5.082  -3.008   0.032  1.00  0.00    -0.083 Cl
ENDBRANCH  13  14
ENDBRANCH   2   3
ENDBRANCH   1   2
BRANCH   1  22
ATOM     22  C   UNL     1       2.920  -3.875   2.174  1.00  0.00     0.237 C 
ATOM     23  O   UNL     1       1.962  -4.614   2.248  1.00  0.00    -0.274 OA
ATOM     24  N   UNL     1       4.126  -4.291   2.608  1.00  0.00    -0.290 N 
ATOM     25  C   UNL     1       4.267  -5.528   3.125  1.00  0.00     0.274 C 
ATOM     26  H   UNL     1       4.941  -3.663   2.546  1.00  0.00     0.173 HD
ATOM     27  O   UNL     1       3.305  -6.269   3.199  1.00  0.00    -0.267 OA
BRANCH  25  28
ATOM     28  C   UNL     1       5.579  -5.980   3.597  1.00  0.00     0.104 A 
ATOM     29  N   UNL     1       6.747  -5.252   3.574  1.00  0.00    -0.357 N 
ATOM     30  C   UNL     1       5.867  -7.210   4.150  1.00  0.00     0.033 A 
ATOM     31  C   UNL     1       7.738  -6.008   4.093  1.00  0.00     0.083 A 
ATOM     32  H   UNL     1       6.849  -4.290   3.220  1.00  0.00     0.166 HD
ATOM     33  C   UNL     1       7.232  -7.212   4.451  1.00  0.00     0.020 A 
ENDBRANCH  25  28
ENDBRANCH   1  22
TORSDOF 5
