REMARK SMILES O=C(/C=C/c1ccccc1)ON=C1C=CC(=NNC(=O)c2ccccc2O)C=C1
REMARK SMILES IDX 12 1 13 2 14 3 15 4 16 5 17 6 28 7 29 8 11 9 2 10 1 11 3 12
REMARK SMILES IDX 4 13 5 14 8 15 9 16 7 17 10 18 6 19 18 20 19 21 20 23 21 24
REMARK SMILES IDX 26 25 22 26 25 27 23 28 24 29 27 30
REMARK H PARENT 18 22 27 31
REMARK Flexibility Score: inf
ROOT
ATOM      1  N   UNL     1       4.611   1.093  -0.036  1.00  0.00    -0.076 NA
ATOM      2  C   UNL     1       5.776   1.707  -0.044  1.00  0.00     0.103 C 
ATOM      3  C   UNL     1       5.833   3.171  -0.043  1.00  0.00     0.034 C 
ATOM      4  C   UNL     1       7.026   3.799  -0.044  1.00  0.00     0.032 C 
ATOM      5  C   UNL     1       8.265   3.018  -0.060  1.00  0.00     0.084 C 
ATOM      6  N   UNL     1       9.433   3.633  -0.067  1.00  0.00    -0.173 NA
ATOM      7  C   UNL     1       8.208   1.554  -0.068  1.00  0.00     0.032 C 
ATOM      8  C   UNL     1       7.016   0.925  -0.060  1.00  0.00     0.034 C 
ENDROOT
BRANCH   1   9
ATOM      9  O   UNL     1       3.581   1.742  -0.023  1.00  0.00    -0.313 OA
BRANCH   9  10
ATOM     10  C   UNL     1       2.423   1.052  -0.015  1.00  0.00     0.358 C 
ATOM     11  O   UNL     1       2.439  -0.164  -0.022  1.00  0.00    -0.244 OA
BRANCH  10  12
ATOM     12  C   UNL     1       1.147   1.766   0.001  1.00  0.00     0.096 C 
ATOM     13  C   UNL     1      -0.013   1.076   0.008  1.00  0.00     0.015 C 
BRANCH  13  14
ATOM     14  C   UNL     1      -1.297   1.794   0.018  1.00  0.00    -0.025 A 
ATOM     15  C   UNL     1      -3.715   3.147   0.037  1.00  0.00     0.000 A 
ATOM     16  C   UNL     1      -2.527   3.858   0.035  1.00  0.00     0.001 A 
ATOM     17  C   UNL     1      -3.700   1.763   0.029  1.00  0.00     0.001 A 
ATOM     18  C   UNL     1      -1.320   3.193   0.031  1.00  0.00     0.008 A 
ATOM     19  C   UNL     1      -2.501   1.082   0.020  1.00  0.00     0.008 A 
ENDBRANCH  13  14
ENDBRANCH  10  12
ENDBRANCH   9  10
ENDBRANCH   1   9
BRANCH   6  20
ATOM     20  N   UNL     1       9.487   5.033  -0.059  1.00  0.00    -0.242 N 
ATOM     21  C   UNL     1      10.679   5.661  -0.067  1.00  0.00     0.275 C 
ATOM     22  H   UNL     1       8.616   5.582  -0.049  1.00  0.00     0.194 HD
ATOM     23  O   UNL     1      11.708   5.013  -0.080  1.00  0.00    -0.267 OA
BRANCH  21  24
ATOM     24  C   UNL     1      10.737   7.134  -0.059  1.00  0.00     0.083 A 
ATOM     25  C   UNL     1      11.975   7.792  -0.066  1.00  0.00     0.128 A 
ATOM     26  C   UNL     1       9.557   7.883  -0.050  1.00  0.00     0.018 A 
ATOM     27  C   UNL     1      12.016   9.178  -0.059  1.00  0.00     0.047 A 
ATOM     28  C   UNL     1       9.617   9.259  -0.038  1.00  0.00     0.001 A 
ATOM     29  C   UNL     1      10.843   9.906  -0.045  1.00  0.00     0.004 A 
BRANCH  25  30
ATOM     30  O   UNL     1      13.127   7.075  -0.080  1.00  0.00    -0.507 OA
ATOM     31  H   UNL     1      13.054   6.495  -0.879  1.00  0.00     0.293 HD
ENDBRANCH  25  30
ENDBRANCH  21  24
ENDBRANCH   6  20
TORSDOF 7
