REMARK SMILES O=C(NNC(=O)c1cc(-c2ccccc2)nc2c1cnn2Cc1ccncc1)c1cc2c(s1)CCC2
REMARK SMILES IDX 9 1 8 2 7 3 18 4 19 5 20 6 21 7 17 8 16 9 10 10 13 11 14 12
REMARK SMILES IDX 12 13 15 14 11 15 5 16 6 17 4 18 3 20 2 21 1 23 29 24 33 25
REMARK SMILES IDX 30 26 32 27 31 28 34 29 36 30 35 31 22 32 23 33 28 34 24 35
REMARK SMILES IDX 27 36 25 37 26 38
REMARK H PARENT 4 19 3 22
REMARK Flexibility Score: inf
ROOT
ATOM      1  C   UNL     1       3.205  -1.742  -0.039  1.00  0.00     0.074 A 
ATOM      2  C   UNL     1       4.054  -0.631  -0.041  1.00  0.00     0.043 A 
ATOM      3  C   UNL     1       3.503   0.645  -0.028  1.00  0.00     0.056 A 
ATOM      4  C   UNL     1       2.094   0.759  -0.014  1.00  0.00     0.052 A 
ATOM      5  C   UNL     1       1.203   1.853   0.001  1.00  0.00     0.146 A 
ATOM      6  N   UNL     1      -0.017   1.396   0.010  1.00  0.00    -0.178 NA
ATOM      7  N   UNL     1       0.002  -0.004   0.002  1.00  0.00    -0.243 N 
ATOM      8  C   UNL     1       1.311  -0.414  -0.013  1.00  0.00     0.159 A 
ATOM      9  N   UNL     1       1.890  -1.605  -0.025  1.00  0.00    -0.228 NA
ENDROOT
BRANCH   1  10
ATOM     10  C   UNL     1       3.792  -3.104  -0.051  1.00  0.00     0.000 A 
ATOM     11  C   UNL     1       4.888  -5.646  -0.076  1.00  0.00     0.000 A 
ATOM     12  C   UNL     1       5.717  -4.538  -0.078  1.00  0.00     0.001 A 
ATOM     13  C   UNL     1       3.514  -5.488  -0.061  1.00  0.00     0.001 A 
ATOM     14  C   UNL     1       5.176  -3.269  -0.072  1.00  0.00     0.010 A 
ATOM     15  C   UNL     1       2.962  -4.224  -0.049  1.00  0.00     0.010 A 
ENDBRANCH   1  10
BRANCH   3  16
ATOM     16  C   UNL     1       4.364   1.847  -0.030  1.00  0.00     0.270 C 
ATOM     17  O   UNL     1       3.863   2.954  -0.019  1.00  0.00    -0.267 OA
ATOM     18  N   UNL     1       5.706   1.715  -0.043  1.00  0.00    -0.263 N 
ATOM     19  H   UNL     1       6.131   0.777  -0.053  1.00  0.00     0.191 HD
BRANCH  18  20
ATOM     20  N   UNL     1       6.522   2.854  -0.044  1.00  0.00    -0.263 N 
ATOM     21  C   UNL     1       7.863   2.722  -0.058  1.00  0.00     0.279 C 
ATOM     22  H   UNL     1       6.097   3.792  -0.035  1.00  0.00     0.191 HD
ATOM     23  O   UNL     1       8.365   1.613  -0.069  1.00  0.00    -0.266 OA
BRANCH  21  24
ATOM     24  C   UNL     1       8.717   3.913  -0.059  1.00  0.00     0.094 A 
ATOM     25  S   UNL     1       8.248   5.633  -0.053  1.00  0.00    -0.135 S 
ATOM     26  C   UNL     1      10.094   3.997  -0.072  1.00  0.00     0.029 A 
ATOM     27  C   UNL     1       9.830   6.327  -0.054  1.00  0.00     0.009 A 
ATOM     28  C   UNL     1      10.678   5.264  -0.070  1.00  0.00    -0.033 A 
ATOM     29  C   UNL     1      10.572   7.636  -0.050  1.00  0.00     0.047 C 
ATOM     30  C   UNL     1      12.112   5.800  -0.086  1.00  0.00     0.037 C 
ATOM     31  C   UNL     1      12.011   7.267   0.373  1.00  0.00     0.010 C 
ENDBRANCH  21  24
ENDBRANCH  18  20
ENDBRANCH   3  16
BRANCH   7  32
ATOM     32  C   UNL     1      -1.173  -0.879   0.009  1.00  0.00     0.182 C 
BRANCH  32  33
ATOM     33  C   UNL     1      -1.589  -1.173  -1.409  1.00  0.00    -0.023 A 
ATOM     34  C   UNL     1      -1.073  -2.266  -2.089  1.00  0.00     0.026 A 
ATOM     35  C   UNL     1      -2.501  -0.359  -2.064  1.00  0.00     0.026 A 
ATOM     36  C   UNL     1      -1.479  -2.503  -3.389  1.00  0.00     0.111 A 
ATOM     37  C   UNL     1      -2.856  -0.656  -3.366  1.00  0.00     0.111 A 
ATOM     38  N   UNL     1      -2.345  -1.705  -3.981  1.00  0.00    -0.265 NA
ENDBRANCH  32  33
ENDBRANCH   7  32
TORSDOF 6
