REMARK SMILES Cc1cc(O)c(-c2n[nH]c3c2[C@@H](c2cccc(OCCC(C)C)c2)N(CCO)C3=O)cc1Cl
REMARK SMILES IDX 13 1 14 2 15 3 16 4 17 5 24 6 12 7 7 8 8 9 11 10 9 11 10 12
REMARK SMILES IDX 25 14 29 15 30 16 6 17 1 18 2 19 32 20 3 21 31 22 33 23 4 24
REMARK SMILES IDX 5 25 26 27 27 28 28 29 18 31 19 32 20 33 21 34 22 35 23 36
REMARK H PARENT 9 13 5 26 28 30
REMARK Flexibility Score: inf
ROOT
ATOM      1  C   UNL     1      -0.776  -2.137   0.782  1.00  0.00    -0.017 A 
ATOM      2  C   UNL     1      -1.221  -2.225   2.089  1.00  0.00     0.006 A 
ATOM      3  C   UNL     1      -0.335  -2.534   3.104  1.00  0.00     0.004 A 
ATOM      4  C   UNL     1       1.000  -2.745   2.817  1.00  0.00     0.046 A 
ATOM      5  C   UNL     1       1.450  -2.652   1.508  1.00  0.00     0.119 A 
ATOM      6  C   UNL     1       0.557  -2.347   0.490  1.00  0.00     0.052 A 
ENDROOT
BRANCH   1   7
ATOM      7  C   UNL     1      -1.746  -1.806  -0.323  1.00  0.00     0.151 C 
ATOM      8  C   UNL     1      -2.015   0.955  -0.049  1.00  0.00     0.102 A 
ATOM      9  N   UNL     1      -3.164   1.575   0.135  1.00  0.00    -0.174 NA
ATOM     10  C   UNL     1      -2.287  -0.414  -0.137  1.00  0.00     0.038 A 
ATOM     11  N   UNL     1      -4.133   0.732   0.179  1.00  0.00    -0.272 N 
ATOM     12  C   UNL     1      -3.654  -0.537   0.018  1.00  0.00     0.129 A 
ATOM     13  H   UNL     1      -5.125   0.977   0.314  1.00  0.00     0.190 HD
ATOM     14  N   UNL     1      -2.906  -2.704  -0.264  1.00  0.00    -0.324 N 
ATOM     15  C   UNL     1      -4.007  -1.959  -0.058  1.00  0.00     0.273 C 
ATOM     16  O   UNL     1      -5.136  -2.401   0.038  1.00  0.00    -0.267 OA
BRANCH   8  17
ATOM     17  C   UNL     1      -0.679   1.593  -0.152  1.00  0.00     0.046 A 
ATOM     18  C   UNL     1       3.172   3.434  -0.463  1.00  0.00     0.046 C 
ATOM     19  C   UNL     1       1.815   2.788  -0.351  1.00  0.00    -0.029 A 
ATOM     20  C   UNL     1       1.679   1.429  -0.575  1.00  0.00     0.044 A 
ATOM     21  C   UNL     1       0.713   3.554  -0.024  1.00  0.00     0.051 A 
ATOM     22  C   UNL     1       0.439   0.828  -0.474  1.00  0.00     0.035 A 
ATOM     23  Cl  UNL     1       3.071   0.475  -0.984  1.00  0.00    -0.084 Cl
ATOM     24  C   UNL     1      -0.536   2.965   0.080  1.00  0.00     0.125 A 
BRANCH  24  25
ATOM     25  O   UNL     1      -1.621   3.718   0.401  1.00  0.00    -0.507 OA
ATOM     26  H   UNL     1      -1.647   4.431  -0.285  1.00  0.00     0.293 HD
ENDBRANCH  24  25
ENDBRANCH   8  17
BRANCH  14  27
ATOM     27  C   UNL     1      -2.869  -4.163  -0.395  1.00  0.00     0.149 C 
BRANCH  27  28
ATOM     28  C   UNL     1      -2.856  -4.800   0.996  1.00  0.00     0.177 C 
BRANCH  28  29
ATOM     29  O   UNL     1      -4.094  -4.528   1.656  1.00  0.00    -0.395 OA
ATOM     30  H   UNL     1      -4.841  -4.905   1.128  1.00  0.00     0.210 HD
ENDBRANCH  28  29
ENDBRANCH  27  28
ENDBRANCH  14  27
ENDBRANCH   1   7
BRANCH   5  31
ATOM     31  O   UNL     1       2.762  -2.858   1.224  1.00  0.00    -0.494 OA
BRANCH  31  32
ATOM     32  C   UNL     1       3.623  -3.168   2.321  1.00  0.00     0.230 C 
BRANCH  32  33
ATOM     33  C   UNL     1       5.051  -3.366   1.809  1.00  0.00     0.044 C 
BRANCH  33  34
ATOM     34  C   UNL     1       5.973  -3.698   2.984  1.00  0.00    -0.014 C 
ATOM     35  C   UNL     1       5.569  -5.045   3.585  1.00  0.00     0.007 C 
ATOM     36  C   UNL     1       7.420  -3.772   2.492  1.00  0.00     0.007 C 
ENDBRANCH  33  34
ENDBRANCH  32  33
ENDBRANCH  31  32
ENDBRANCH   5  31
TORSDOF 10
