REMARK SMILES CCn1c(C[C@]23C[C@H]4C[C@H](C[C@H](C4)C2)C3)nnc1SCC(=O)Nc1sc(C)c(C)c1C(=O)OC
REMARK SMILES IDX 20 1 19 2 18 3 3 4 4 5 17 6 16 7 2 8 1 9 5 10 6 11 15 12
REMARK SMILES IDX 7 13 14 14 10 15 8 16 12 17 11 18 9 19 13 20 21 21 22 22
REMARK SMILES IDX 23 23 24 25 25 26 30 27 26 28 28 29 27 30 29 31 31 32 32 33
REMARK SMILES IDX 33 34 34 35
REMARK H PARENT 23 24
REMARK Flexibility Score: inf
ROOT
ATOM      1  C   UNL     1       1.187   3.500  -4.987  1.00  0.00     0.178 C 
ENDROOT
BRANCH   1   2
ATOM      2  S   UNL     1       1.471   5.022  -5.925  1.00  0.00    -0.076 SA
BRANCH   2   3
ATOM      3  C   UNL     1       1.285   4.409  -7.567  1.00  0.00     0.191 A 
ATOM      4  N   UNL     1       1.395   5.131  -8.720  1.00  0.00    -0.306 N 
ATOM      5  C   UNL     1       1.175   4.242  -9.736  1.00  0.00     0.134 A 
ATOM      6  N   UNL     1       1.020   3.170  -7.912  1.00  0.00    -0.123 NA
ATOM      7  N   UNL     1       0.952   3.079  -9.192  1.00  0.00    -0.134 NA
BRANCH   4   8
ATOM      8  C   UNL     1       1.688   6.561  -8.844  1.00  0.00     0.123 C 
ATOM      9  C   UNL     1       3.203   6.777  -8.804  1.00  0.00     0.028 C 
ENDBRANCH   4   8
BRANCH   5  10
ATOM     10  C   UNL     1       1.187   4.551 -11.211  1.00  0.00     0.084 C 
BRANCH  10  11
ATOM     11  C   UNL     1      -0.244   4.801 -11.692  1.00  0.00    -0.022 C 
ATOM     12  C   UNL     1      -0.228   5.150 -13.181  1.00  0.00     0.011 C 
ATOM     13  C   UNL     1      -1.083   3.541 -11.473  1.00  0.00     0.011 C 
ATOM     14  C   UNL     1      -0.852   5.962 -10.903  1.00  0.00     0.011 C 
ATOM     15  C   UNL     1      -1.658   5.400 -13.662  1.00  0.00    -0.010 C 
ATOM     16  C   UNL     1      -2.514   3.790 -11.954  1.00  0.00    -0.010 C 
ATOM     17  C   UNL     1      -2.283   6.212 -11.383  1.00  0.00    -0.010 C 
ATOM     18  C   UNL     1      -2.266   6.561 -12.873  1.00  0.00     0.007 C 
ATOM     19  C   UNL     1      -2.498   4.139 -13.443  1.00  0.00     0.007 C 
ATOM     20  C   UNL     1      -3.122   4.951 -11.164  1.00  0.00     0.007 C 
ENDBRANCH  10  11
ENDBRANCH   5  10
ENDBRANCH   2   3
ENDBRANCH   1   2
BRANCH   1  21
ATOM     21  C   UNL     1       1.300   3.790  -3.513  1.00  0.00     0.235 C 
ATOM     22  O   UNL     1       1.548   4.915  -3.133  1.00  0.00    -0.274 OA
ATOM     23  N   UNL     1       1.125   2.799  -2.616  1.00  0.00    -0.316 N 
ATOM     24  H   UNL     1       0.914   1.844  -2.938  1.00  0.00     0.170 HD
BRANCH  23  25
ATOM     25  C   UNL     1       1.228   3.066  -1.260  1.00  0.00     0.110 A 
ATOM     26  S   UNL     1       1.571   4.575  -0.483  1.00  0.00    -0.122 S 
ATOM     27  C   UNL     1       1.083   2.186  -0.193  1.00  0.00     0.098 A 
ATOM     28  C   UNL     1       1.522   4.053   1.218  1.00  0.00     0.007 A 
ATOM     29  C   UNL     1       1.240   2.740   1.131  1.00  0.00    -0.021 A 
ATOM     30  C   UNL     1       1.740   4.882   2.457  1.00  0.00     0.057 C 
ATOM     31  C   UNL     1       1.098   1.884   2.364  1.00  0.00     0.046 C 
BRANCH  27  32
ATOM     32  C   UNL     1       0.779   0.769  -0.401  1.00  0.00     0.341 C 
ATOM     33  O   UNL     1       1.683  -0.035  -0.524  1.00  0.00    -0.246 OA
BRANCH  32  34
ATOM     34  O   UNL     1      -0.504   0.355  -0.457  1.00  0.00    -0.465 OA
ATOM     35  C   UNL     1      -0.730  -1.064  -0.666  1.00  0.00     0.282 C 
ENDBRANCH  32  34
ENDBRANCH  27  32
ENDBRANCH  23  25
ENDBRANCH   1  21
TORSDOF 9
