REMARK SMILES [H]/N=C(\N/N=C1/C(=O)N(Cc2ccccc2)c2ccccc21)SCc1c(F)cccc1Cl
REMARK SMILES IDX 4 1 3 2 2 3 1 5 5 6 9 7 7 8 17 9 6 10 8 11 22 12 18 13 21 14
REMARK SMILES IDX 19 15 20 16 10 17 11 18 14 19 15 20 13 21 16 22 12 23 23 24
REMARK SMILES IDX 24 25 25 26 31 27 26 28 30 29 32 30 28 31 27 32 29 33
REMARK H PARENT 4 4
REMARK Flexibility Score: inf
ROOT
ATOM      1  N   UNL     1       3.429   2.718  -0.122  1.00  0.00    -0.255 N 
ATOM      2  C   UNL     1       4.753   2.340  -0.240  1.00  0.00     0.174 C 
ATOM      3  N   UNL     1       5.071   1.076  -0.248  1.00  0.00    -0.277 NA
ATOM      4  H   UNL     1       3.178   3.717  -0.115  1.00  0.00     0.192 HD
ATOM      5  H   UNL     1       4.336   0.359  -0.167  1.00  0.00     0.190 HD
ENDROOT
BRANCH   1   6
ATOM      6  N   UNL     1       2.430   1.743  -0.011  1.00  0.00    -0.167 NA
ATOM      7  N   UNL     1      -1.109   1.997   0.105  1.00  0.00    -0.302 N 
ATOM      8  C   UNL     1      -0.009   1.233   0.211  1.00  0.00     0.279 C 
ATOM      9  C   UNL     1      -0.785   3.320  -0.173  1.00  0.00     0.054 A 
ATOM     10  C   UNL     1       1.166   2.095  -0.021  1.00  0.00     0.158 C 
ATOM     11  O   UNL     1       0.015   0.040   0.450  1.00  0.00    -0.267 OA
ATOM     12  C   UNL     1       0.607   3.445  -0.267  1.00  0.00     0.031 A 
ATOM     13  C   UNL     1      -1.578   4.446  -0.363  1.00  0.00     0.027 A 
ATOM     14  C   UNL     1       1.185   4.679  -0.544  1.00  0.00     0.013 A 
ATOM     15  C   UNL     1      -0.995   5.667  -0.637  1.00  0.00     0.002 A 
ATOM     16  C   UNL     1       0.382   5.786  -0.729  1.00  0.00     0.001 A 
BRANCH   7  17
ATOM     17  C   UNL     1      -2.478   1.499   0.265  1.00  0.00     0.161 C 
BRANCH  17  18
ATOM     18  C   UNL     1      -2.886   1.610   1.712  1.00  0.00    -0.028 A 
ATOM     19  C   UNL     1      -3.636   1.813   4.365  1.00  0.00     0.000 A 
ATOM     20  C   UNL     1      -3.025   0.661   3.905  1.00  0.00     0.000 A 
ATOM     21  C   UNL     1      -3.873   2.863   3.497  1.00  0.00     0.000 A 
ATOM     22  C   UNL     1      -2.655   0.558   2.578  1.00  0.00     0.005 A 
ATOM     23  C   UNL     1      -3.498   2.761   2.171  1.00  0.00     0.005 A 
ENDBRANCH  17  18
ENDBRANCH   7  17
ENDBRANCH   1   6
BRANCH   2  24
ATOM     24  S   UNL     1       6.010   3.566  -0.379  1.00  0.00    -0.082 SA
BRANCH  24  25
ATOM     25  C   UNL     1       7.472   2.506  -0.498  1.00  0.00     0.118 C 
BRANCH  25  26
ATOM     26  C   UNL     1       8.705   3.362  -0.629  1.00  0.00     0.017 A 
ATOM     27  C   UNL     1       9.162   3.731  -1.881  1.00  0.00     0.048 A 
ATOM     28  C   UNL     1       9.384   3.776   0.504  1.00  0.00     0.128 A 
ATOM     29  C   UNL     1      10.291   4.522  -2.000  1.00  0.00     0.021 A 
ATOM     30  Cl  UNL     1       8.315   3.206  -3.303  1.00  0.00    -0.084 Cl
ATOM     31  C   UNL     1      10.516   4.563   0.383  1.00  0.00     0.039 A 
ATOM     32  F   UNL     1       8.941   3.413   1.728  1.00  0.00    -0.207 F 
ATOM     33  C   UNL     1      10.969   4.935  -0.869  1.00  0.00     0.005 A 
ENDBRANCH  25  26
ENDBRANCH  24  25
ENDBRANCH   2  24
TORSDOF 6
