REMARK SMILES COC(=O)C1=C(CSc2nc3cc(C)ccc3[nH]2)NC(=O)N[C@@H]1c1ccc(C)cc1C
REMARK SMILES IDX 23 1 5 2 6 3 19 4 20 5 21 6 22 7 24 10 28 11 27 12 29 13
REMARK SMILES IDX 26 14 30 15 25 16 31 17 3 18 4 19 2 20 1 21 7 22 8 23 9 24
REMARK SMILES IDX 10 25 18 26 11 27 17 28 12 30 16 31 13 32 15 33 14 34
REMARK H PARENT 19 8 22 9 18 29
REMARK Flexibility Score: inf
ROOT
ATOM      1  C   UNL     1      -2.497  -4.106   1.260  1.00  0.00     0.154 C 
ATOM      2  C   UNL     1      -2.481  -2.623   0.948  1.00  0.00     0.084 C 
ATOM      3  C   UNL     1      -2.273  -2.253  -0.335  1.00  0.00     0.043 C 
ATOM      4  N   UNL     1      -2.089  -3.185  -1.316  1.00  0.00    -0.310 N 
ATOM      5  C   UNL     1      -2.089  -4.505  -1.095  1.00  0.00     0.319 C 
ATOM      6  O   UNL     1      -1.911  -5.258  -2.033  1.00  0.00    -0.248 OA
ATOM      7  N   UNL     1      -2.283  -5.028   0.132  1.00  0.00    -0.327 N 
ATOM      8  H   UNL     1      -1.943  -2.853  -2.280  1.00  0.00     0.171 HD
ATOM      9  H   UNL     1      -2.283  -6.047   0.277  1.00  0.00     0.166 HD
ENDROOT
BRANCH   1  10
ATOM     10  C   UNL     1      -3.830  -4.435   1.882  1.00  0.00    -0.018 A 
ATOM     11  C   UNL     1      -7.607  -5.367   3.645  1.00  0.00     0.044 C 
ATOM     12  C   UNL     1      -6.274  -5.039   3.023  1.00  0.00    -0.051 A 
ATOM     13  C   UNL     1      -5.221  -4.633   3.820  1.00  0.00     0.007 A 
ATOM     14  C   UNL     1      -6.105  -5.144   1.655  1.00  0.00     0.004 A 
ATOM     15  C   UNL     1      -3.998  -4.334   3.250  1.00  0.00    -0.045 A 
ATOM     16  C   UNL     1      -4.883  -4.843   1.084  1.00  0.00     0.007 A 
ATOM     17  C   UNL     1      -2.848  -3.896   4.120  1.00  0.00     0.045 C 
ENDBRANCH   1  10
BRANCH   2  18
ATOM     18  C   UNL     1      -2.676  -1.659   1.964  1.00  0.00     0.338 C 
ATOM     19  O   UNL     1      -1.751  -1.344   2.690  1.00  0.00    -0.246 OA
BRANCH  18  20
ATOM     20  O   UNL     1      -3.888  -1.090   2.130  1.00  0.00    -0.466 OA
ATOM     21  C   UNL     1      -3.995  -0.070   3.126  1.00  0.00     0.282 C 
ENDBRANCH  18  20
ENDBRANCH   2  18
BRANCH   3  22
ATOM     22  C   UNL     1      -2.249  -0.789  -0.689  1.00  0.00     0.132 C 
BRANCH  22  23
ATOM     23  S   UNL     1      -0.540  -0.262  -0.964  1.00  0.00    -0.082 SA
BRANCH  23  24
ATOM     24  C   UNL     1      -0.802   1.438  -1.350  1.00  0.00     0.166 A 
ATOM     25  N   UNL     1      -1.971   2.028  -1.396  1.00  0.00    -0.223 NA
ATOM     26  N   UNL     1       0.183   2.335  -1.651  1.00  0.00    -0.333 N 
ATOM     27  C   UNL     1      -1.808   3.337  -1.720  1.00  0.00     0.090 A 
ATOM     28  C   UNL     1      -0.431   3.554  -1.891  1.00  0.00     0.066 A 
ATOM     29  H   UNL     1       1.194   2.142  -1.693  1.00  0.00     0.169 HD
ATOM     30  C   UNL     1      -2.699   4.399  -1.898  1.00  0.00     0.034 A 
ATOM     31  C   UNL     1       0.034   4.814  -2.235  1.00  0.00     0.028 A 
ATOM     32  C   UNL     1      -2.219   5.644  -2.240  1.00  0.00    -0.049 A 
ATOM     33  C   UNL     1      -0.858   5.852  -2.408  1.00  0.00     0.006 A 
ATOM     34  C   UNL     1      -3.179   6.789  -2.432  1.00  0.00     0.044 C 
ENDBRANCH  23  24
ENDBRANCH  22  23
ENDBRANCH   3  22
TORSDOF 6
