REMARK SMILES O=C1S/C(=C\c2cccs2)C(=O)N1CC(=O)N1CCc2sccc2[C@@H]1c1cccs1
REMARK SMILES IDX 14 1 13 2 5 3 4 4 3 5 11 6 2 7 12 8 1 9 6 10 8 11 9 12 7 13
REMARK SMILES IDX 10 14 15 15 16 16 17 17 25 18 18 19 24 20 19 21 20 22 23 23
REMARK SMILES IDX 21 24 22 25 26 26 30 27 27 28 29 29 28 30
REMARK H PARENT
REMARK Flexibility Score: inf
ROOT
ATOM      1  C   UNL     1      -0.494  -4.443   1.510  1.00  0.00     0.230 C 
ENDROOT
BRANCH   1   2
ATOM      2  N   UNL     1      -0.135  -5.442   2.520  1.00  0.00    -0.259 N 
ATOM      3  C   UNL     1       0.038  -6.100   6.120  1.00  0.00     0.040 C 
ATOM      4  C   UNL     1       0.086  -6.147   4.758  1.00  0.00     0.084 C 
ATOM      5  S   UNL     1       0.618  -7.474   3.685  1.00  0.00    -0.022 SA
ATOM      6  C   UNL     1      -0.274  -5.151   3.802  1.00  0.00     0.268 C 
ATOM      7  C   UNL     1       0.330  -6.649   2.127  1.00  0.00     0.294 C 
ATOM      8  O   UNL     1      -0.698  -4.065   4.156  1.00  0.00    -0.268 OA
ATOM      9  O   UNL     1       0.509  -7.066   0.999  1.00  0.00    -0.261 OA
BRANCH   3  10
ATOM     10  C   UNL     1       0.449  -7.218   6.882  1.00  0.00     0.028 A 
ATOM     11  C   UNL     1       0.929  -8.580   8.743  1.00  0.00     0.012 A 
ATOM     12  C   UNL     1       1.317  -9.541   7.865  1.00  0.00     0.065 A 
ATOM     13  C   UNL     1       0.484  -7.373   8.263  1.00  0.00     0.020 A 
ATOM     14  S   UNL     1       1.065  -8.795   6.321  1.00  0.00    -0.144 S 
ENDBRANCH   3  10
ENDBRANCH   1   2
BRANCH   1  15
ATOM     15  C   UNL     1       0.709  -3.593   1.193  1.00  0.00     0.243 C 
ATOM     16  O   UNL     1       1.763  -3.801   1.756  1.00  0.00    -0.273 OA
BRANCH  15  17
ATOM     17  N   UNL     1       0.613  -2.602   0.285  1.00  0.00    -0.329 N 
ATOM     18  C   UNL     1       1.780  -1.767  -0.032  1.00  0.00     0.157 C 
ATOM     19  C   UNL     1      -0.660  -2.341  -0.403  1.00  0.00     0.126 C 
ATOM     20  C   UNL     1       1.328  -0.308  -0.014  1.00  0.00    -0.006 A 
ATOM     21  C   UNL     1      -1.156  -0.948   0.013  1.00  0.00     0.068 C 
ATOM     22  C   UNL     1       0.002  -0.004   0.002  1.00  0.00     0.012 A 
ATOM     23  C   UNL     1       2.216   0.767  -0.016  1.00  0.00     0.018 A 
ATOM     24  S   UNL     1      -0.022   1.769   0.012  1.00  0.00    -0.148 S 
ATOM     25  C   UNL     1       1.745   2.034  -0.004  1.00  0.00     0.065 A 
BRANCH  18  26
ATOM     26  C   UNL     1       2.306  -2.122  -1.399  1.00  0.00     0.032 A 
ATOM     27  S   UNL     1       1.399  -2.554  -2.875  1.00  0.00    -0.146 S 
ATOM     28  C   UNL     1       3.590  -2.202  -1.825  1.00  0.00     0.018 A 
ATOM     29  C   UNL     1       2.792  -2.803  -3.963  1.00  0.00     0.065 A 
ATOM     30  C   UNL     1       3.839  -2.551  -3.139  1.00  0.00     0.012 A 
ENDBRANCH  18  26
ENDBRANCH  15  17
ENDBRANCH   1  15
TORSDOF 5
