REMARK SMILES C[C@@H]1CCCC[C@@H]1NC(=O)NC(=O)[C@@H](C)Sc1nc(N)c2ccsc2n1
REMARK SMILES IDX 14 1 15 2 12 3 8 4 9 5 10 7 11 8 13 10 7 11 1 12 2 13 3 14
REMARK SMILES IDX 6 15 4 16 5 17 16 18 17 19 26 20 18 21 25 22 19 23 21 24
REMARK SMILES IDX 24 25 22 26 23 27 20 28
REMARK H PARENT 8 6 11 9 20 29 20 30
REMARK Flexibility Score: inf
ROOT
ATOM      1  C   UNL     1      -1.169  -0.405  -7.088  1.00  0.00     0.141 C 
ATOM      2  C   UNL     1      -0.319   0.655  -7.791  1.00  0.00     0.030 C 
ENDROOT
BRANCH   1   3
ATOM      3  C   UNL     1      -0.441  -0.904  -5.867  1.00  0.00     0.241 C 
ATOM      4  N   UNL     1       0.010  -0.012  -2.444  1.00  0.00    -0.335 N 
ATOM      5  C   UNL     1       0.111  -0.681  -3.609  1.00  0.00     0.321 C 
ATOM      6  H   UNL     1      -0.566   0.840  -2.387  1.00  0.00     0.165 HD
ATOM      7  O   UNL     1       0.789  -1.687  -3.676  1.00  0.00    -0.248 OA
ATOM      8  N   UNL     1      -0.541  -0.235  -4.701  1.00  0.00    -0.277 N 
ATOM      9  H   UNL     1      -1.117   0.618  -4.645  1.00  0.00     0.174 HD
ATOM     10  O   UNL     1       0.237  -1.907  -5.933  1.00  0.00    -0.273 OA
BRANCH   4  11
ATOM     11  C   UNL     1       0.718  -0.497  -1.257  1.00  0.00     0.086 C 
ATOM     12  C   UNL     1      -1.433  -0.534   0.013  1.00  0.00     0.010 C 
ATOM     13  C   UNL     1       0.002  -0.004   0.002  1.00  0.00     0.008 C 
ATOM     14  C   UNL     1      -0.019   1.526   0.010  1.00  0.00     0.005 C 
ATOM     15  C   UNL     1       2.154   0.032  -1.268  1.00  0.00     0.025 C 
ATOM     16  C   UNL     1       1.417   2.055  -0.000  1.00  0.00     0.000 C 
ATOM     17  C   UNL     1       2.133   1.562  -1.259  1.00  0.00     0.002 C 
ENDBRANCH   4  11
ENDBRANCH   1   3
BRANCH   1  18
ATOM     18  S   UNL     1      -1.469  -1.786  -8.218  1.00  0.00    -0.073 SA
BRANCH  18  19
ATOM     19  C   UNL     1      -2.438  -0.973  -9.445  1.00  0.00     0.191 A 
ATOM     20  N   UNL     1      -2.718   0.316  -9.304  1.00  0.00    -0.211 NA
ATOM     21  N   UNL     1      -2.878  -1.663 -10.491  1.00  0.00    -0.205 NA
ATOM     22  C   UNL     1      -3.437   0.945 -10.213  1.00  0.00     0.130 A 
ATOM     23  C   UNL     1      -3.609  -1.107 -11.442  1.00  0.00     0.136 A 
ATOM     24  C   UNL     1      -3.938   0.274 -11.350  1.00  0.00     0.054 A 
ATOM     25  S   UNL     1      -4.026   2.604 -10.420  1.00  0.00    -0.124 S 
ATOM     26  C   UNL     1      -4.718   1.104 -12.254  1.00  0.00     0.026 A 
ATOM     27  C   UNL     1      -4.901   2.399 -11.960  1.00  0.00     0.068 A 
BRANCH  23  28
ATOM     28  N   UNL     1      -4.049  -1.860 -12.515  1.00  0.00    -0.383 N 
ATOM     29  H   UNL     1      -3.806  -2.860 -12.572  1.00  0.00     0.158 HD
ATOM     30  H   UNL     1      -4.619  -1.424 -13.254  1.00  0.00     0.158 HD
ENDBRANCH  23  28
ENDBRANCH  18  19
ENDBRANCH   1  18
TORSDOF 5
