REMARK SMILES COc1cc(/C=N/NC(=O)c2cc(-c3ccccc3O)nc3ccccc23)ccc1OC(C)C
REMARK SMILES IDX 8 1 9 2 10 3 7 5 6 6 5 7 30 8 3 9 29 10 4 11 28 12 31 13
REMARK SMILES IDX 32 14 33 15 34 16 2 17 1 18 11 19 27 20 12 21 22 22 26 23
REMARK SMILES IDX 13 24 21 25 23 26 25 27 24 28 14 29 19 30 15 31 18 32 16 33
REMARK SMILES IDX 17 34 20 35
REMARK H PARENT 8 4 20 36
REMARK Flexibility Score: inf
ROOT
ATOM      1  N   UNL     1      -2.773   3.485  -0.296  1.00  0.00    -0.243 N 
ATOM      2  C   UNL     1      -2.892   4.823  -0.402  1.00  0.00     0.272 C 
ATOM      3  O   UNL     1      -1.897   5.519  -0.468  1.00  0.00    -0.267 OA
ATOM      4  H   UNL     1      -3.615   2.895  -0.240  1.00  0.00     0.194 HD
ENDROOT
BRANCH   1   5
ATOM      5  N   UNL     1      -1.502   2.895  -0.263  1.00  0.00    -0.180 NA
ATOM      6  C   UNL     1      -1.387   1.606  -0.161  1.00  0.00     0.141 C 
BRANCH   6   7
ATOM      7  C   UNL     1      -0.050   0.986  -0.126  1.00  0.00    -0.002 A 
ATOM      8  C   UNL     1       2.468  -0.176  -0.073  1.00  0.00     0.161 A 
ATOM      9  C   UNL     1       1.332  -0.978   0.010  1.00  0.00     0.161 A 
ATOM     10  C   UNL     1       2.344   1.201  -0.181  1.00  0.00     0.051 A 
ATOM     11  C   UNL     1       0.076  -0.401  -0.017  1.00  0.00     0.060 A 
ATOM     12  C   UNL     1       1.094   1.784  -0.209  1.00  0.00     0.014 A 
BRANCH   8  13
ATOM     13  O   UNL     1       3.702  -0.746  -0.047  1.00  0.00    -0.487 OA
BRANCH  13  14
ATOM     14  C   UNL     1       4.824   0.132  -0.163  1.00  0.00     0.167 C 
ATOM     15  C   UNL     1       6.062  -0.541   0.434  1.00  0.00     0.052 C 
ATOM     16  C   UNL     1       5.076   0.446  -1.639  1.00  0.00     0.052 C 
ENDBRANCH  13  14
ENDBRANCH   8  13
BRANCH   9  17
ATOM     17  O   UNL     1       1.458  -2.328   0.117  1.00  0.00    -0.493 OA
ATOM     18  C   UNL     1       0.250  -3.088   0.197  1.00  0.00     0.278 C 
ENDBRANCH   9  17
ENDBRANCH   6   7
ENDBRANCH   1   5
BRANCH   2  19
ATOM     19  C   UNL     1      -4.233   5.445  -0.437  1.00  0.00     0.053 A 
ATOM     20  C   UNL     1      -4.399   6.883  -0.649  1.00  0.00     0.013 A 
ATOM     21  C   UNL     1      -5.384   4.689  -0.264  1.00  0.00     0.043 A 
ATOM     22  C   UNL     1      -5.712   7.419  -0.678  1.00  0.00     0.072 A 
ATOM     23  C   UNL     1      -3.299   7.726  -0.840  1.00  0.00     0.011 A 
ATOM     24  C   UNL     1      -6.636   5.321  -0.305  1.00  0.00     0.075 A 
ATOM     25  N   UNL     1      -6.763   6.617  -0.502  1.00  0.00    -0.248 NA
ATOM     26  C   UNL     1      -5.878   8.800  -0.887  1.00  0.00     0.029 A 
ATOM     27  C   UNL     1      -3.499   9.060  -1.040  1.00  0.00     0.001 A 
ATOM     28  C   UNL     1      -4.786   9.593  -1.064  1.00  0.00     0.002 A 
BRANCH  24  29
ATOM     29  C   UNL     1      -7.857   4.503  -0.118  1.00  0.00     0.042 A 
ATOM     30  C   UNL     1      -9.119   5.106  -0.148  1.00  0.00     0.124 A 
ATOM     31  C   UNL     1      -7.753   3.129   0.093  1.00  0.00     0.014 A 
ATOM     32  C   UNL     1     -10.255   4.331   0.021  1.00  0.00     0.047 A 
ATOM     33  C   UNL     1      -8.893   2.372   0.266  1.00  0.00     0.001 A 
ATOM     34  C   UNL     1     -10.141   2.971   0.230  1.00  0.00     0.004 A 
BRANCH  30  35
ATOM     35  O   UNL     1      -9.230   6.445  -0.348  1.00  0.00    -0.507 OA
ATOM     36  H   UNL     1      -8.760   6.614  -1.203  1.00  0.00     0.293 HD
ENDBRANCH  30  35
ENDBRANCH  24  29
ENDBRANCH   2  19
TORSDOF 8
