REMARK SMILES CCOC(=O)c1ccc(NC(=O)[C@H]2C[C@H](Cc3ccccc3)[NH2+][C@]23C(=O)Nc2ccccc23)cc1
REMARK SMILES IDX 6 1 7 2 8 3 9 4 34 5 35 6 4 7 5 8 3 9 2 10 1 11 10 12 11 13
REMARK SMILES IDX 12 15 13 16 24 17 14 18 25 19 33 20 23 21 15 22 27 23 26 24
REMARK SMILES IDX 28 25 32 26 29 30 31 31 30 32 16 33 17 34 22 35 18 36 21 37
REMARK SMILES IDX 19 38 20 39
REMARK H PARENT 10 14 23 27 23 28 27 29
REMARK Flexibility Score: inf
ROOT
ATOM      1  C   UNL     1       4.051  -1.457   1.122  1.00  0.00     0.060 A 
ATOM      2  C   UNL     1       3.773  -0.643   2.225  1.00  0.00     0.018 A 
ATOM      3  C   UNL     1       2.623   0.113   2.247  1.00  0.00     0.027 A 
ATOM      4  C   UNL     1       1.738   0.069   1.175  1.00  0.00     0.041 A 
ATOM      5  C   UNL     1       2.008  -0.744   0.078  1.00  0.00     0.027 A 
ATOM      6  C   UNL     1       3.159  -1.499   0.046  1.00  0.00     0.018 A 
ENDROOT
BRANCH   1   7
ATOM      7  C   UNL     1       5.281  -2.269   1.094  1.00  0.00     0.338 C 
ATOM      8  O   UNL     1       6.056  -2.231   2.030  1.00  0.00    -0.246 OA
BRANCH   7   9
ATOM      9  O   UNL     1       5.548  -3.053   0.031  1.00  0.00    -0.462 OA
BRANCH   9  10
ATOM     10  C   UNL     1       6.777  -3.824   0.072  1.00  0.00     0.230 C 
ATOM     11  C   UNL     1       6.906  -4.646  -1.212  1.00  0.00     0.049 C 
ENDBRANCH   9  10
ENDBRANCH   7   9
ENDBRANCH   1   7
BRANCH   4  12
ATOM     12  N   UNL     1       0.574   0.836   1.201  1.00  0.00    -0.326 N 
ATOM     13  C   UNL     1       0.061   1.321   0.053  1.00  0.00     0.235 C 
ATOM     14  H   UNL     1       0.107   1.032   2.098  1.00  0.00     0.169 HD
ATOM     15  O   UNL     1       0.657   1.167  -0.991  1.00  0.00    -0.274 OA
BRANCH  13  16
ATOM     16  C   UNL     1      -1.252   2.061   0.068  1.00  0.00     0.161 C 
ATOM     17  C   UNL     1      -2.423   1.072   0.026  1.00  0.00     0.215 C 
ATOM     18  C   UNL     1      -1.405   2.913  -1.215  1.00  0.00     0.086 C 
ATOM     19  C   UNL     1      -3.276   1.191   1.262  1.00  0.00     0.291 C 
ATOM     20  C   UNL     1      -1.930  -0.350   0.035  1.00  0.00     0.047 A 
ATOM     21  N   UNL     1      -3.182   1.360  -1.183  1.00  0.00    -0.326 N 
ATOM     22  C   UNL     1      -2.263   2.005  -2.133  1.00  0.00     0.189 C 
ATOM     23  N   UNL     1      -3.256  -0.012   1.866  1.00  0.00    -0.320 N 
ATOM     24  O   UNL     1      -3.866   2.181   1.641  1.00  0.00    -0.267 OA
ATOM     25  C   UNL     1      -2.476  -0.938   1.171  1.00  0.00     0.051 A 
ATOM     26  C   UNL     1      -1.117  -1.073  -0.809  1.00  0.00     0.013 A 
ATOM     27  H   UNL     1      -3.541   0.482  -1.585  1.00  0.00     0.347 HD
ATOM     28  H   UNL     1      -3.959   1.998  -0.961  1.00  0.00     0.347 HD
ATOM     29  H   UNL     1      -3.759  -0.225   2.740  1.00  0.00     0.170 HD
ATOM     30  C   UNL     1      -2.190  -2.274   1.442  1.00  0.00     0.027 A 
ATOM     31  C   UNL     1      -0.838  -2.400  -0.532  1.00  0.00     0.001 A 
ATOM     32  C   UNL     1      -1.377  -2.996   0.594  1.00  0.00     0.002 A 
BRANCH  22  33
ATOM     33  C   UNL     1      -3.024   2.844  -3.163  1.00  0.00     0.100 C 
BRANCH  33  34
ATOM     34  C   UNL     1      -3.840   1.936  -4.046  1.00  0.00    -0.042 A 
ATOM     35  C   UNL     1      -5.138   1.613  -3.693  1.00  0.00     0.004 A 
ATOM     36  C   UNL     1      -3.295   1.431  -5.211  1.00  0.00     0.004 A 
ATOM     37  C   UNL     1      -5.887   0.780  -4.503  1.00  0.00     0.000 A 
ATOM     38  C   UNL     1      -4.042   0.594  -6.018  1.00  0.00     0.000 A 
ATOM     39  C   UNL     1      -5.339   0.271  -5.666  1.00  0.00     0.000 A 
ENDBRANCH  33  34
ENDBRANCH  22  33
ENDBRANCH  13  16
ENDBRANCH   4  12
TORSDOF 7
