REMARK SMILES CC(C)n1c(SCc2nnc(-c3ccc(Br)o3)o2)nc2sc3c(c2c1=O)CCC3
REMARK SMILES IDX 7 1 6 2 5 3 4 4 25 5 19 6 26 7 24 8 20 9 23 10 21 11 27 12
REMARK SMILES IDX 22 13 28 14 29 15 2 16 1 17 3 18 8 19 18 20 9 21 11 22 10 23
REMARK SMILES IDX 12 24 17 25 13 26 15 27 14 28 16 29
REMARK H PARENT
REMARK Flexibility Score: inf
ROOT
ATOM      1  C   UNL     1      -0.026  -6.922   1.021  1.00  0.00     0.177 C 
ENDROOT
BRANCH   1   2
ATOM      2  S   UNL     1       1.535  -6.575   0.173  1.00  0.00    -0.078 SA
BRANCH   2   3
ATOM      3  C   UNL     1       1.405  -4.827  -0.005  1.00  0.00     0.173 A 
ATOM      4  N   UNL     1       2.411  -4.137  -0.617  1.00  0.00    -0.284 N 
ATOM      5  C   UNL     1       2.347  -2.801  -0.772  1.00  0.00     0.263 A 
ATOM      6  N   UNL     1       0.338  -4.205   0.456  1.00  0.00    -0.213 NA
ATOM      7  O   UNL     1       3.252  -2.197  -1.321  1.00  0.00    -0.268 OA
ATOM      8  C   UNL     1       1.200  -2.102  -0.282  1.00  0.00     0.080 A 
ATOM      9  C   UNL     1       0.215  -2.888   0.334  1.00  0.00     0.132 A 
ATOM     10  C   UNL     1       0.925  -0.656  -0.345  1.00  0.00    -0.019 A 
ATOM     11  S   UNL     1      -1.020  -1.706   0.802  1.00  0.00    -0.120 S 
ATOM     12  C   UNL     1       1.668   0.559  -0.906  1.00  0.00     0.038 C 
ATOM     13  C   UNL     1      -0.231  -0.234   0.192  1.00  0.00     0.011 A 
ATOM     14  C   UNL     1       1.016   1.786  -0.239  1.00  0.00     0.010 C 
ATOM     15  C   UNL     1      -0.401   1.257   0.072  1.00  0.00     0.047 C 
BRANCH   4  16
ATOM     16  C   UNL     1       3.581  -4.863  -1.115  1.00  0.00     0.087 C 
ATOM     17  C   UNL     1       3.729  -4.623  -2.619  1.00  0.00     0.031 C 
ATOM     18  C   UNL     1       4.835  -4.365  -0.394  1.00  0.00     0.031 C 
ENDBRANCH   4  16
ENDBRANCH   2   3
ENDBRANCH   1   2
BRANCH   1  19
ATOM     19  C   UNL     1      -0.137  -8.402   1.284  1.00  0.00     0.227 A 
ATOM     20  O   UNL     1      -0.692  -9.314   0.467  1.00  0.00    -0.417 OA
ATOM     21  N   UNL     1       0.282  -9.027   2.349  1.00  0.00    -0.112 NA
ATOM     22  C   UNL     1      -0.574 -10.505   1.091  1.00  0.00     0.283 A 
ATOM     23  N   UNL     1       0.025 -10.283   2.240  1.00  0.00    -0.104 NA
BRANCH  22  24
ATOM     24  C   UNL     1      -1.035 -11.805   0.583  1.00  0.00     0.192 A 
ATOM     25  O   UNL     1      -1.654 -12.021  -0.595  1.00  0.00    -0.444 OA
ATOM     26  C   UNL     1      -0.915 -13.002   1.224  1.00  0.00     0.057 A 
ATOM     27  C   UNL     1      -1.924 -13.330  -0.723  1.00  0.00     0.170 A 
ATOM     28  C   UNL     1      -1.487 -13.972   0.381  1.00  0.00     0.059 A 
ATOM     29  Br  UNL     1      -2.780 -14.138  -2.203  1.00  0.00    -0.008 Br
ENDBRANCH  22  24
ENDBRANCH   1  19
TORSDOF 5
