REMARK SMILES CCOC(=O)c1sc(N)c(C#N)c1CSc1nc2sc3c(c2c(=O)n1CC(C)C)CCC3
REMARK SMILES IDX 14 1 13 2 6 3 7 4 8 5 10 6 4 7 5 8 3 9 2 10 1 11 9 12 11 15
REMARK SMILES IDX 12 16 15 17 16 18 25 19 17 20 23 21 18 22 22 23 24 24 19 25
REMARK SMILES IDX 21 26 20 27 30 28 32 29 31 30 26 31 27 32 28 33 29 34
REMARK H PARENT 9 13 9 14
REMARK Flexibility Score: inf
ROOT
ATOM      1  C   UNL     1      -0.508  -6.725   0.160  1.00  0.00     0.117 C 
ENDROOT
BRANCH   1   2
ATOM      2  C   UNL     1      -0.788  -8.204   0.247  1.00  0.00     0.008 A 
ATOM      3  C   UNL     1      -0.570  -8.907   1.415  1.00  0.00     0.120 A 
ATOM      4  S   UNL     1      -1.054 -10.564   0.968  1.00  0.00    -0.110 S 
ATOM      5  C   UNL     1      -1.510 -10.279  -0.679  1.00  0.00     0.105 A 
ATOM      6  C   UNL     1      -1.280  -8.908  -0.839  1.00  0.00     0.091 A 
BRANCH   3   7
ATOM      7  C   UNL     1      -0.083  -8.431   2.658  1.00  0.00     0.348 C 
ATOM      8  O   UNL     1       0.202  -7.256   2.790  1.00  0.00    -0.245 OA
BRANCH   7   9
ATOM      9  O   UNL     1       0.064  -9.282   3.696  1.00  0.00    -0.462 OA
BRANCH   9  10
ATOM     10  C   UNL     1       0.559  -8.734   4.919  1.00  0.00     0.230 C 
ATOM     11  C   UNL     1       0.658  -9.841   5.971  1.00  0.00     0.049 C 
ENDBRANCH   9  10
ENDBRANCH   7   9
ENDBRANCH   3   7
BRANCH   5  12
ATOM     12  N   UNL     1      -1.986 -11.180  -1.604  1.00  0.00    -0.389 N 
ATOM     13  H   UNL     1      -2.192 -10.766  -2.524  1.00  0.00     0.157 HD
ATOM     14  H   UNL     1      -2.132 -12.183  -1.418  1.00  0.00     0.157 HD
ENDBRANCH   5  12
BRANCH   6  15
ATOM     15  C   UNL     1      -1.540  -8.255  -2.087  1.00  0.00     0.103 C 
ATOM     16  N   UNL     1      -1.747  -7.737  -3.077  1.00  0.00    -0.192 NA
ENDBRANCH   6  15
ENDBRANCH   1   2
BRANCH   1  17
ATOM     17  S   UNL     1       1.202  -6.466  -0.374  1.00  0.00    -0.083 SA
BRANCH  17  18
ATOM     18  C   UNL     1       1.253  -4.704  -0.389  1.00  0.00     0.172 A 
ATOM     19  N   UNL     1       2.406  -4.069  -0.749  1.00  0.00    -0.287 N 
ATOM     20  N   UNL     1       0.178  -4.020  -0.053  1.00  0.00    -0.213 NA
ATOM     21  C   UNL     1       2.484  -2.725  -0.774  1.00  0.00     0.263 A 
ATOM     22  C   UNL     1       0.191  -2.692  -0.057  1.00  0.00     0.132 A 
ATOM     23  C   UNL     1       1.331  -1.958  -0.414  1.00  0.00     0.080 A 
ATOM     24  O   UNL     1       3.520  -2.170  -1.097  1.00  0.00    -0.268 OA
ATOM     25  S   UNL     1      -1.004  -1.436   0.316  1.00  0.00    -0.120 S 
ATOM     26  C   UNL     1       1.195  -0.493  -0.373  1.00  0.00    -0.019 A 
ATOM     27  C   UNL     1       0.002  -0.004   0.002  1.00  0.00     0.011 A 
ATOM     28  C   UNL     1       2.125   0.686  -0.673  1.00  0.00     0.038 C 
ATOM     29  C   UNL     1      -0.018   1.501   0.010  1.00  0.00     0.047 C 
ATOM     30  C   UNL     1       1.471   1.909  -0.002  1.00  0.00     0.010 C 
BRANCH  19  31
ATOM     31  C   UNL     1       3.581  -4.863  -1.115  1.00  0.00     0.131 C 
BRANCH  31  32
ATOM     32  C   UNL     1       4.420  -5.139   0.134  1.00  0.00     0.003 C 
ATOM     33  C   UNL     1       5.579  -6.072  -0.225  1.00  0.00     0.009 C 
ATOM     34  C   UNL     1       4.976  -3.821   0.677  1.00  0.00     0.009 C 
ENDBRANCH  31  32
ENDBRANCH  19  31
ENDBRANCH  17  18
ENDBRANCH   1  17
TORSDOF 10
