REMARK SMILES COC(=O)[C@H](Cc1ccccc1)NC(=O)N(CC[NH2+]CCNC(=O)OC(C)(C)C)c1ccccc1
REMARK SMILES IDX 18 1 19 2 20 5 21 6 22 7 23 8 24 9 25 11 26 12 27 13 28 14
REMARK SMILES IDX 29 15 17 16 16 17 30 18 35 19 31 20 34 21 32 22 33 23 14 24
REMARK SMILES IDX 15 25 13 26 5 28 6 29 7 30 12 31 8 32 11 33 9 34 10 35 3 36
REMARK SMILES IDX 4 37 2 38 1 39
REMARK H PARENT 19 3 19 4 22 10 13 27
REMARK Flexibility Score: inf
ROOT
ATOM      1  C   UNL     1      -2.577   7.029  -5.659  1.00  0.00     0.282 C 
ENDROOT
BRANCH   1   2
ATOM      2  N   UNL     1      -2.755   7.261  -7.105  1.00  0.00    -0.343 N 
ATOM      3  H   UNL     1      -2.875   6.356  -7.583  1.00  0.00     0.346 HD
ATOM      4  H   UNL     1      -1.919   7.732  -7.480  1.00  0.00     0.346 HD
BRANCH   2   5
ATOM      5  C   UNL     1      -3.942   8.102  -7.347  1.00  0.00     0.282 C 
BRANCH   5   6
ATOM      6  C   UNL     1      -4.101   8.325  -8.852  1.00  0.00     0.180 C 
BRANCH   6   7
ATOM      7  N   UNL     1      -5.279   9.160  -9.100  1.00  0.00    -0.316 N 
ATOM      8  C   UNL     1      -5.617   9.490 -10.363  1.00  0.00     0.407 C 
ATOM      9  O   UNL     1      -4.946   9.094 -11.294  1.00  0.00    -0.225 OA
ATOM     10  H   UNL     1      -5.848   9.496  -8.310  1.00  0.00     0.167 HD
BRANCH   8  11
ATOM     11  O   UNL     1      -6.700  10.258 -10.591  1.00  0.00    -0.444 OA
BRANCH  11  12
ATOM     12  C   UNL     1      -7.004  10.573 -11.975  1.00  0.00     0.106 C 
ATOM     13  C   UNL     1      -7.248   9.277 -12.751  1.00  0.00     0.056 C 
ATOM     14  C   UNL     1      -8.258  11.447 -12.035  1.00  0.00     0.056 C 
ATOM     15  C   UNL     1      -5.827  11.326 -12.597  1.00  0.00     0.056 C 
ENDBRANCH  11  12
ENDBRANCH   8  11
ENDBRANCH   6   7
ENDBRANCH   5   6
ENDBRANCH   2   5
ENDBRANCH   1   2
BRANCH   1  16
ATOM     16  C   UNL     1      -1.341   6.155  -5.440  1.00  0.00     0.188 C 
BRANCH  16  17
ATOM     17  N   UNL     1      -1.157   5.920  -4.006  1.00  0.00    -0.289 N 
BRANCH  17  18
ATOM     18  C   UNL     1      -0.380   6.801  -3.246  1.00  0.00     0.046 A 
ATOM     19  C   UNL     1       0.992   6.871  -3.449  1.00  0.00     0.026 A 
ATOM     20  C   UNL     1      -0.980   7.612  -2.292  1.00  0.00     0.026 A 
ATOM     21  C   UNL     1       1.756   7.743  -2.698  1.00  0.00     0.002 A 
ATOM     22  C   UNL     1      -0.210   8.478  -1.541  1.00  0.00     0.002 A 
ATOM     23  C   UNL     1       1.156   8.545  -1.745  1.00  0.00     0.000 A 
ENDBRANCH  17  18
BRANCH  17  24
ATOM     24  C   UNL     1      -1.736   4.854  -3.418  1.00  0.00     0.322 C 
ATOM     25  O   UNL     1      -2.329   4.035  -4.094  1.00  0.00    -0.248 OA
ATOM     26  N   UNL     1      -1.658   4.696  -2.082  1.00  0.00    -0.324 N 
ATOM     27  H   UNL     1      -1.099   5.352  -1.518  1.00  0.00     0.166 HD
BRANCH  26  28
ATOM     28  C   UNL     1      -2.369   3.593  -1.432  1.00  0.00     0.198 C 
BRANCH  28  29
ATOM     29  C   UNL     1      -1.674   3.244  -0.114  1.00  0.00     0.072 C 
BRANCH  29  30
ATOM     30  C   UNL     1      -0.292   2.715  -0.400  1.00  0.00    -0.045 A 
ATOM     31  C   UNL     1       0.780   3.584  -0.469  1.00  0.00     0.004 A 
ATOM     32  C   UNL     1      -0.099   1.361  -0.600  1.00  0.00     0.004 A 
ATOM     33  C   UNL     1       2.048   3.098  -0.730  1.00  0.00     0.000 A 
ATOM     34  C   UNL     1       1.170   0.874  -0.856  1.00  0.00     0.000 A 
ATOM     35  C   UNL     1       2.243   1.743  -0.924  1.00  0.00     0.000 A 
ENDBRANCH  29  30
ENDBRANCH  28  29
BRANCH  28  36
ATOM     36  C   UNL     1      -3.792   4.006  -1.155  1.00  0.00     0.328 C 
ATOM     37  O   UNL     1      -4.173   5.109  -1.469  1.00  0.00    -0.250 OA
BRANCH  36  38
ATOM     38  O   UNL     1      -4.636   3.148  -0.560  1.00  0.00    -0.467 OA
ATOM     39  C   UNL     1      -5.991   3.613  -0.325  1.00  0.00     0.282 C 
ENDBRANCH  36  38
ENDBRANCH  28  36
ENDBRANCH  26  28
ENDBRANCH  17  24
ENDBRANCH  16  17
ENDBRANCH   1  16
TORSDOF 15
