REMARK SMILES Cc1ccc(CSc2nnc(N/N=C/c3cc(Br)cc(Br)c3[O-])n2N)cc1
REMARK SMILES IDX 8 1 9 2 10 3 11 4 24 5 7 6 6 7 5 8 1 9 2 10 27 11 3 12 26 13
REMARK SMILES IDX 4 14 25 15 12 18 13 20 14 21 15 22 22 23 16 24 20 25 23 26
REMARK SMILES IDX 17 27 19 28 21 29 18 30
REMARK H PARENT 25 16 25 17 12 19
REMARK Flexibility Score: inf
ROOT
ATOM      1  C   UNL     1      -0.809   3.844   1.366  1.00  0.00     0.211 A 
ATOM      2  N   UNL     1      -0.263   4.523   0.386  1.00  0.00    -0.119 NA
ATOM      3  N   UNL     1      -0.431   5.887   0.658  1.00  0.00    -0.107 NA
ATOM      4  C   UNL     1      -1.074   5.997   1.795  1.00  0.00     0.264 A 
ATOM      5  N   UNL     1      -1.329   4.736   2.260  1.00  0.00    -0.202 N 
ENDROOT
BRANCH   1   6
ATOM      6  S   UNL     1      -0.867   2.088   1.503  1.00  0.00    -0.080 SA
BRANCH   6   7
ATOM      7  C   UNL     1      -0.018   1.503   0.010  1.00  0.00     0.113 C 
BRANCH   7   8
ATOM      8  C   UNL     1       0.002  -0.004   0.002  1.00  0.00    -0.038 A 
ATOM      9  C   UNL     1       0.060  -4.275  -0.022  1.00  0.00     0.044 C 
ATOM     10  C   UNL     1       0.040  -2.768  -0.014  1.00  0.00    -0.051 A 
ATOM     11  C   UNL     1       1.073  -2.067   0.578  1.00  0.00     0.004 A 
ATOM     12  C   UNL     1      -1.012  -2.088  -0.598  1.00  0.00     0.004 A 
ATOM     13  C   UNL     1       1.057  -0.684   0.582  1.00  0.00     0.005 A 
ATOM     14  C   UNL     1      -1.031  -0.706  -0.591  1.00  0.00     0.005 A 
ENDBRANCH   7   8
ENDBRANCH   6   7
ENDBRANCH   1   6
BRANCH   5  15
ATOM     15  N   UNL     1      -1.986   4.425   3.416  1.00  0.00    -0.334 N 
ATOM     16  H   UNL     1      -2.089   3.419   3.615  1.00  0.00     0.178 HD
ATOM     17  H   UNL     1      -2.361   5.137   4.058  1.00  0.00     0.178 HD
ENDBRANCH   5  15
BRANCH   4  18
ATOM     18  N   UNL     1      -1.438   7.183   2.415  1.00  0.00    -0.244 N 
ATOM     19  H   UNL     1      -1.943   7.162   3.312  1.00  0.00     0.193 HD
BRANCH  18  20
ATOM     20  N   UNL     1      -1.116   8.411   1.821  1.00  0.00    -0.181 NA
ATOM     21  C   UNL     1      -1.456   9.522   2.401  1.00  0.00     0.141 C 
BRANCH  21  22
ATOM     22  C   UNL     1      -1.119  10.813   1.776  1.00  0.00    -0.011 A 
ATOM     23  C   UNL     1      -0.425  10.847   0.559  1.00  0.00    -0.085 A 
ATOM     24  C   UNL     1      -1.482  12.010   2.397  1.00  0.00     0.025 A 
ATOM     25  C   UNL     1      -0.117  12.066  -0.023  1.00  0.00     0.011 A 
ATOM     26  O   UNL     1      -0.062   9.688  -0.051  1.00  0.00    -0.871 OA
ATOM     27  C   UNL     1      -1.163  13.216   1.808  1.00  0.00     0.019 A 
ATOM     28  C   UNL     1      -0.482  13.244   0.602  1.00  0.00     0.030 A 
ATOM     29  Br  UNL     1       0.812  12.118  -1.669  1.00  0.00    -0.051 Br
ATOM     30  Br  UNL     1      -1.657  14.836   2.649  1.00  0.00    -0.051 Br
ENDBRANCH  21  22
ENDBRANCH  18  20
ENDBRANCH   4  18
TORSDOF 7
