REMARK SMILES CC[C@@H](C)c1ccc(S(=O)(=O)N/N=C/c2c(O)ccc3ccccc23)cc1
REMARK SMILES IDX 9 1 10 2 11 3 8 4 5 5 27 6 6 7 26 8 7 9 3 10 4 11 2 12 1 13
REMARK SMILES IDX 12 14 13 16 14 17 15 18 16 19 25 20 18 21 20 22 24 23 19 24
REMARK SMILES IDX 21 25 23 26 22 27 17 28
REMARK H PARENT 12 15 17 29
REMARK Flexibility Score: inf
ROOT
ATOM      1  S   UNL     1      -2.563   9.713   0.080  1.00  0.00     0.276 S 
ATOM      2  O   UNL     1      -3.916  10.129  -0.050  1.00  0.00    -0.200 OA
ATOM      3  O   UNL     1      -1.746  10.108   1.174  1.00  0.00    -0.200 OA
ENDROOT
BRANCH   1   4
ATOM      4  C   UNL     1      -1.732  10.236  -1.383  1.00  0.00     0.089 A 
ATOM      5  C   UNL     1      -0.429  11.058  -3.679  1.00  0.00    -0.045 A 
ATOM      6  C   UNL     1       0.287  10.843  -2.517  1.00  0.00     0.005 A 
ATOM      7  C   UNL     1      -1.798  10.863  -3.693  1.00  0.00     0.005 A 
ATOM      8  C   UNL     1      -0.365  10.437  -1.368  1.00  0.00     0.022 A 
ATOM      9  C   UNL     1      -2.449  10.452  -2.546  1.00  0.00     0.022 A 
BRANCH   5  10
ATOM     10  C   UNL     1       0.281  11.506  -4.931  1.00  0.00     0.016 C 
ATOM     11  C   UNL     1       1.323  10.458  -5.328  1.00  0.00     0.013 C 
BRANCH  10  12
ATOM     12  C   UNL     1       0.976  12.844  -4.672  1.00  0.00     0.004 C 
ATOM     13  C   UNL     1       1.591  13.359  -5.974  1.00  0.00     0.004 C 
ENDBRANCH  10  12
ENDBRANCH   5  10
ENDBRANCH   1   4
BRANCH   1  14
ATOM     14  N   UNL     1      -2.574   8.057   0.071  1.00  0.00    -0.200 NA
ATOM     15  H   UNL     1      -3.469   7.548   0.077  1.00  0.00     0.204 HD
BRANCH  14  16
ATOM     16  N   UNL     1      -1.365   7.349   0.055  1.00  0.00    -0.173 NA
ATOM     17  C   UNL     1      -1.373   6.050   0.048  1.00  0.00     0.146 C 
BRANCH  17  18
ATOM     18  C   UNL     1      -0.105   5.306   0.032  1.00  0.00     0.044 A 
ATOM     19  C   UNL     1       1.116   5.980   0.024  1.00  0.00     0.125 A 
ATOM     20  C   UNL     1      -0.096   3.845   0.024  1.00  0.00    -0.006 A 
ATOM     21  C   UNL     1       2.314   5.270   0.008  1.00  0.00     0.047 A 
ATOM     22  C   UNL     1       1.148   3.168   0.008  1.00  0.00    -0.017 A 
ATOM     23  C   UNL     1      -1.286   3.107   0.032  1.00  0.00     0.009 A 
ATOM     24  C   UNL     1       2.341   3.910   0.001  1.00  0.00     0.012 A 
ATOM     25  C   UNL     1       1.163   1.762   0.000  1.00  0.00     0.009 A 
ATOM     26  C   UNL     1      -1.234   1.745   0.017  1.00  0.00     0.001 A 
ATOM     27  C   UNL     1      -0.013   1.076   0.008  1.00  0.00     0.001 A 
BRANCH  19  28
ATOM     28  O   UNL     1       1.136   7.338   0.031  1.00  0.00    -0.507 OA
ATOM     29  H   UNL     1       0.619   7.598   0.834  1.00  0.00     0.293 HD
ENDBRANCH  19  28
ENDBRANCH  17  18
ENDBRANCH  14  16
ENDBRANCH   1  14
TORSDOF 7
