REMARK SMILES Cc1ccc(C)c(S(=O)(=O)[N-]c2ccccc2C(=O)NC[C@H](O)c2ccc(F)c(F)c2)c1
REMARK SMILES IDX 12 1 13 2 14 3 15 4 16 5 17 6 11 7 8 8 9 9 10 10 7 11 1 12
REMARK SMILES IDX 2 13 32 14 3 15 4 16 5 17 6 18 18 19 19 20 20 21 21 23 22 24
REMARK SMILES IDX 24 25 31 26 25 27 29 28 26 29 27 30 30 31 28 32 23 33
REMARK H PARENT 20 22 23 34
REMARK Flexibility Score: inf
ROOT
ATOM      1  C   UNL     1      -1.175   1.518   0.130  1.00  0.00    -0.115 A 
ATOM      2  C   UNL     1      -1.423   2.664  -0.617  1.00  0.00    -0.015 A 
ATOM      3  C   UNL     1      -2.658   3.276  -0.552  1.00  0.00    -0.001 A 
ATOM      4  C   UNL     1      -3.654   2.763   0.264  1.00  0.00     0.001 A 
ATOM      5  C   UNL     1      -3.425   1.632   1.015  1.00  0.00     0.012 A 
ATOM      6  C   UNL     1      -2.182   0.996   0.957  1.00  0.00     0.025 A 
ENDROOT
BRANCH   1   7
ATOM      7  N   UNL     1       0.065   0.897   0.062  1.00  0.00    -0.572 NA
BRANCH   7   8
ATOM      8  S   UNL     1       1.439   1.806  -0.102  1.00  0.00     0.123 S 
ATOM      9  O   UNL     1       2.535   0.907  -0.001  1.00  0.00    -0.240 OA
ATOM     10  O   UNL     1       1.241   2.641  -1.235  1.00  0.00    -0.240 OA
BRANCH   8  11
ATOM     11  C   UNL     1       1.530   2.871   1.299  1.00  0.00     0.055 A 
ATOM     12  C   UNL     1       1.352   6.565   2.057  1.00  0.00     0.044 C 
ATOM     13  C   UNL     1       1.482   5.074   2.235  1.00  0.00    -0.050 A 
ATOM     14  C   UNL     1       1.416   4.239   1.135  1.00  0.00     0.022 A 
ATOM     15  C   UNL     1       1.673   4.542   3.496  1.00  0.00     0.004 A 
ATOM     16  C   UNL     1       1.793   3.175   3.659  1.00  0.00     0.005 A 
ATOM     17  C   UNL     1       1.722   2.339   2.560  1.00  0.00    -0.034 A 
ATOM     18  C   UNL     1       1.853   0.849   2.737  1.00  0.00     0.045 C 
ENDBRANCH   8  11
ENDBRANCH   7   8
ENDBRANCH   1   7
BRANCH   6  19
ATOM     19  C   UNL     1      -1.929  -0.215   1.759  1.00  0.00     0.250 C 
ATOM     20  O   UNL     1      -0.846  -0.765   1.705  1.00  0.00    -0.269 OA
ATOM     21  N   UNL     1      -2.899  -0.712   2.551  1.00  0.00    -0.349 N 
ATOM     22  H   UNL     1      -3.817  -0.247   2.597  1.00  0.00     0.163 HD
BRANCH  21  23
ATOM     23  C   UNL     1      -2.648  -1.916   3.348  1.00  0.00     0.152 C 
BRANCH  23  24
ATOM     24  C   UNL     1      -3.902  -2.266   4.152  1.00  0.00     0.164 C 
BRANCH  24  25
ATOM     25  C   UNL     1      -3.644  -3.504   4.972  1.00  0.00    -0.015 A 
ATOM     26  C   UNL     1      -3.035  -3.398   6.208  1.00  0.00     0.048 A 
ATOM     27  C   UNL     1      -4.012  -4.744   4.484  1.00  0.00     0.010 A 
ATOM     28  C   UNL     1      -2.802  -4.535   6.964  1.00  0.00     0.159 A 
ATOM     29  C   UNL     1      -3.775  -5.881   5.234  1.00  0.00     0.043 A 
ATOM     30  C   UNL     1      -3.170  -5.778   6.474  1.00  0.00     0.158 A 
ATOM     31  F   UNL     1      -2.211  -4.432   8.174  1.00  0.00    -0.204 F 
ATOM     32  F   UNL     1      -2.939  -6.889   7.208  1.00  0.00    -0.204 F 
ENDBRANCH  24  25
BRANCH  24  33
ATOM     33  O   UNL     1      -4.230  -1.179   5.021  1.00  0.00    -0.387 OA
ATOM     34  H   UNL     1      -4.399  -0.365   4.483  1.00  0.00     0.211 HD
ENDBRANCH  24  33
ENDBRANCH  23  24
ENDBRANCH  21  23
ENDBRANCH   6  19
TORSDOF 8
