REMARK SMILES Cc1cc(C)c(S(=O)(=O)NC[C@H]2CC[C@@H](C(=O)NCC[N@@H+](Cc3ccccc3)C(C)C)CC2)c(C)c1
REMARK SMILES IDX 16 1 17 2 18 3 15 5 12 6 13 7 33 8 14 9 32 10 11 11 10 12
REMARK SMILES IDX 7 14 8 15 9 16 6 17 1 18 2 19 3 20 36 21 4 22 34 23 5 24
REMARK SMILES IDX 35 25 19 26 20 27 21 28 22 30 23 31 28 32 24 33 27 34 25 35
REMARK SMILES IDX 26 36 29 37 30 38 31 39
REMARK H PARENT 18 4 10 13 21 29
REMARK Flexibility Score: inf
ROOT
ATOM      1  C   UNL     1      -0.060  -6.706   2.985  1.00  0.00     0.223 C 
ATOM      2  O   UNL     1       0.270  -5.852   3.779  1.00  0.00    -0.275 OA
ATOM      3  N   UNL     1      -0.710  -6.361   1.855  1.00  0.00    -0.350 N 
ATOM      4  H   UNL     1      -0.990  -7.087   1.180  1.00  0.00     0.163 HD
ENDROOT
BRANCH   1   5
ATOM      5  C   UNL     1       0.258  -8.154   3.259  1.00  0.00     0.078 C 
ATOM      6  C   UNL     1      -1.194  -8.525   5.777  1.00  0.00     0.004 C 
ATOM      7  C   UNL     1      -1.929  -8.409   4.441  1.00  0.00     0.006 C 
ATOM      8  C   UNL     1       0.106  -7.721   5.715  1.00  0.00     0.006 C 
ATOM      9  C   UNL     1      -1.043  -8.958   3.321  1.00  0.00     0.014 C 
ATOM     10  C   UNL     1       0.993  -8.270   4.596  1.00  0.00     0.014 C 
BRANCH   6  11
ATOM     11  C   UNL     1      -2.080  -7.976   6.897  1.00  0.00     0.102 C 
BRANCH  11  12
ATOM     12  N   UNL     1      -3.270  -8.819   7.035  1.00  0.00    -0.211 NA
ATOM     13  H   UNL     1      -3.518  -9.486   6.291  1.00  0.00     0.141 HD
BRANCH  12  14
ATOM     14  S   UNL     1      -4.218  -8.698   8.388  1.00  0.00     0.241 S 
ATOM     15  O   UNL     1      -5.292  -9.611   8.214  1.00  0.00    -0.207 OA
ATOM     16  O   UNL     1      -3.341  -8.758   9.504  1.00  0.00    -0.207 OA
BRANCH  14  17
ATOM     17  C   UNL     1      -4.923  -7.084   8.388  1.00  0.00     0.088 A 
ATOM     18  C   UNL     1      -6.634  -3.170   8.388  1.00  0.00     0.044 C 
ATOM     19  C   UNL     1      -6.031  -4.551   8.389  1.00  0.00    -0.051 A 
ATOM     20  C   UNL     1      -4.907  -4.814   9.149  1.00  0.00     0.008 A 
ATOM     21  C   UNL     1      -6.601  -5.554   7.628  1.00  0.00     0.008 A 
ATOM     22  C   UNL     1      -4.356  -6.082   9.153  1.00  0.00    -0.031 A 
ATOM     23  C   UNL     1      -6.047  -6.821   7.628  1.00  0.00    -0.031 A 
ATOM     24  C   UNL     1      -3.134  -6.370   9.987  1.00  0.00     0.046 C 
ATOM     25  C   UNL     1      -6.669  -7.915   6.799  1.00  0.00     0.046 C 
ENDBRANCH  14  17
ENDBRANCH  12  14
ENDBRANCH  11  12
ENDBRANCH   6  11
ENDBRANCH   1   5
BRANCH   3  26
ATOM     26  C   UNL     1      -1.018  -4.954   1.588  1.00  0.00     0.177 C 
BRANCH  26  27
ATOM     27  C   UNL     1      -1.754  -4.838   0.252  1.00  0.00     0.284 C 
BRANCH  27  28
ATOM     28  N   UNL     1      -1.904  -3.407  -0.085  1.00  0.00    -0.328 N 
ATOM     29  H   UNL     1      -1.003  -2.932   0.067  1.00  0.00     0.348 HD
BRANCH  28  30
ATOM     30  C   UNL     1      -2.291  -3.260  -1.504  1.00  0.00     0.299 C 
BRANCH  30  31
ATOM     31  C   UNL     1      -2.042  -1.836  -1.928  1.00  0.00     0.006 A 
ATOM     32  C   UNL     1      -0.775  -1.443  -2.320  1.00  0.00     0.009 A 
ATOM     33  C   UNL     1      -3.080  -0.923  -1.931  1.00  0.00     0.009 A 
ATOM     34  C   UNL     1      -0.546  -0.136  -2.709  1.00  0.00     0.001 A 
ATOM     35  C   UNL     1      -2.850   0.385  -2.315  1.00  0.00     0.001 A 
ATOM     36  C   UNL     1      -1.584   0.777  -2.707  1.00  0.00     0.000 A 
ENDBRANCH  30  31
ENDBRANCH  28  30
BRANCH  28  37
ATOM     37  C   UNL     1      -2.926  -2.788   0.784  1.00  0.00     0.178 C 
ATOM     38  C   UNL     1      -3.976  -3.823   1.193  1.00  0.00     0.075 C 
ATOM     39  C   UNL     1      -2.235  -2.241   2.035  1.00  0.00     0.075 C 
ENDBRANCH  28  37
ENDBRANCH  27  28
ENDBRANCH  26  27
ENDBRANCH   3  26
TORSDOF 11
