REMARK SMILES O=C(OCC(=O)N1CC=C(c2c[nH]c3ccccc23)CC1)c1ccc(O)cc1O
REMARK SMILES IDX 4 1 5 2 6 3 7 4 10 5 20 6 9 7 21 8 8 9 11 10 17 11 18 12
REMARK SMILES IDX 16 13 19 14 15 15 14 16 13 17 12 18 3 20 2 21 1 22 22 23
REMARK SMILES IDX 28 24 23 25 27 26 24 27 25 28 29 29 26 31
REMARK H PARENT 13 19 29 30 26 32
REMARK Flexibility Score: inf
ROOT
ATOM      1  C   UNL     1      -0.477  -2.224   0.983  1.00  0.00     0.333 C 
ENDROOT
BRANCH   1   2
ATOM      2  C   UNL     1      -0.513  -0.718   1.023  1.00  0.00     0.260 C 
ATOM      3  O   UNL     1      -1.006  -0.148   1.973  1.00  0.00    -0.271 OA
BRANCH   2   4
ATOM      4  N   UNL     1       0.002  -0.004   0.002  1.00  0.00    -0.336 N 
ATOM      5  C   UNL     1       2.233   1.204  -1.019  1.00  0.00    -0.039 C 
ATOM      6  C   UNL     1       1.432   1.961  -0.001  1.00  0.00     0.057 C 
ATOM      7  C   UNL     1       1.880   0.047  -1.528  1.00  0.00    -0.001 C 
ATOM      8  C   UNL     1      -0.018   1.469   0.010  1.00  0.00     0.124 C 
ATOM      9  C   UNL     1       0.607  -0.664  -1.164  1.00  0.00     0.147 C 
BRANCH   5  10
ATOM     10  C   UNL     1       3.501   1.802  -1.480  1.00  0.00     0.003 A 
ATOM     11  C   UNL     1       6.720   0.245  -0.121  1.00  0.00     0.001 A 
ATOM     12  C   UNL     1       5.368   0.384  -0.269  1.00  0.00     0.011 A 
ATOM     13  C   UNL     1       7.592   1.090  -0.795  1.00  0.00     0.002 A 
ATOM     14  C   UNL     1       4.861   1.380  -1.101  1.00  0.00     0.007 A 
ATOM     15  C   UNL     1       7.111   2.081  -1.622  1.00  0.00     0.027 A 
ATOM     16  C   UNL     1       5.737   2.239  -1.785  1.00  0.00     0.046 A 
ATOM     17  N   UNL     1       4.968   3.113  -2.522  1.00  0.00    -0.361 N 
ATOM     18  C   UNL     1       3.643   2.843  -2.340  1.00  0.00     0.091 A 
ATOM     19  H   UNL     1       5.339   3.862  -3.123  1.00  0.00     0.166 HD
ENDBRANCH   5  10
ENDBRANCH   2   4
ENDBRANCH   1   2
BRANCH   1  20
ATOM     20  O   UNL     1      -1.088  -2.754   2.188  1.00  0.00    -0.452 OA
BRANCH  20  21
ATOM     21  C   UNL     1      -1.137  -4.096   2.311  1.00  0.00     0.342 C 
ATOM     22  O   UNL     1      -0.680  -4.803   1.434  1.00  0.00    -0.246 OA
BRANCH  21  23
ATOM     23  C   UNL     1      -1.742  -4.705   3.506  1.00  0.00     0.102 A 
ATOM     24  C   UNL     1      -1.799  -6.101   3.633  1.00  0.00     0.133 A 
ATOM     25  C   UNL     1      -2.269  -3.894   4.517  1.00  0.00     0.023 A 
ATOM     26  C   UNL     1      -2.367  -6.663   4.765  1.00  0.00     0.093 A 
ATOM     27  C   UNL     1      -2.831  -4.460   5.625  1.00  0.00     0.047 A 
ATOM     28  C   UNL     1      -2.885  -5.844   5.758  1.00  0.00     0.119 A 
BRANCH  24  29
ATOM     29  O   UNL     1      -1.296  -6.897   2.656  1.00  0.00    -0.507 OA
ATOM     30  H   UNL     1      -0.354  -6.610   2.556  1.00  0.00     0.293 HD
ENDBRANCH  24  29
BRANCH  28  31
ATOM     31  O   UNL     1      -3.446  -6.396   6.863  1.00  0.00    -0.508 OA
ATOM     32  H   UNL     1      -4.363  -6.023   6.897  1.00  0.00     0.293 HD
ENDBRANCH  28  31
ENDBRANCH  21  23
ENDBRANCH  20  21
ENDBRANCH   1  20
TORSDOF 8
