REMARK SMILES C=C1/C(=C\C=C2/CCC[C@]3(C)[C@@H]2CC[C@@H]3[C@H](C)/C=C/C=C/C(O)(CC)CC)C[C@@H](O)C[C@H]1O
REMARK SMILES IDX 16 1 17 2 18 3 19 4 20 5 21 6 22 7 24 8 25 9 26 10 27 11
REMARK SMILES IDX 23 12 15 14 10 15 14 16 12 17 9 18 11 19 13 20 6 21 8 22
REMARK SMILES IDX 7 23 5 24 4 25 3 26 2 27 28 28 32 29 1 30 29 31 31 32 33 33
REMARK SMILES IDX 30 35
REMARK H PARENT 23 13 33 34 30 36
REMARK Flexibility Score: inf
ROOT
ATOM      1  C   UNL     1      -2.283   0.900  -0.292  1.00  0.00     0.012 C 
ATOM      2  C   UNL     1      -0.999   1.719  -0.438  1.00  0.00     0.012 C 
ENDROOT
BRANCH   1   3
ATOM      3  C   UNL     1      -1.971  -0.561  -0.489  1.00  0.00    -0.024 C 
ATOM      4  C   UNL     1      -2.216  -1.431   0.485  1.00  0.00    -0.004 C 
BRANCH   4   5
ATOM      5  C   UNL     1      -1.917  -2.858   0.290  1.00  0.00    -0.002 C 
ATOM      6  C   UNL     1      -2.167  -3.728   1.263  1.00  0.00     0.007 C 
BRANCH   6   7
ATOM      7  C   UNL     1      -1.861  -5.190   1.063  1.00  0.00     0.083 C 
BRANCH   7   8
ATOM      8  C   UNL     1      -0.849  -5.648   2.115  1.00  0.00     0.036 C 
ATOM      9  C   UNL     1       0.390  -4.751   2.055  1.00  0.00     0.007 C 
ENDBRANCH   7   8
BRANCH   7  10
ATOM     10  C   UNL     1      -3.149  -6.004   1.206  1.00  0.00     0.036 C 
ATOM     11  C   UNL     1      -2.819  -7.497   1.127  1.00  0.00     0.007 C 
ENDBRANCH   7  10
BRANCH   7  12
ATOM     12  O   UNL     1      -1.314  -5.388  -0.242  1.00  0.00    -0.386 OA
ATOM     13  H   UNL     1      -1.113  -6.348  -0.374  1.00  0.00     0.211 HD
ENDBRANCH   7  12
ENDBRANCH   6   7
ENDBRANCH   4   5
ENDBRANCH   1   3
BRANCH   1  14
ATOM     14  C   UNL     1      -3.299   1.351  -1.343  1.00  0.00     0.002 C 
ATOM     15  C   UNL     1      -4.604   0.589  -1.178  1.00  0.00    -0.023 C 
ATOM     16  C   UNL     1      -2.798   0.989  -2.766  1.00  0.00     0.005 C 
ATOM     17  C   UNL     1      -4.392  -0.675  -2.058  1.00  0.00     0.021 C 
ATOM     18  C   UNL     1      -5.009   0.127   0.200  1.00  0.00     0.008 C 
ATOM     19  C   UNL     1      -5.751   1.419  -1.759  1.00  0.00     0.012 C 
ATOM     20  C   UNL     1      -3.800  -0.060  -3.328  1.00  0.00     0.009 C 
ATOM     21  C   UNL     1      -5.739  -1.321  -2.187  1.00  0.00    -0.067 C 
ATOM     22  C   UNL     1      -6.400  -0.521   0.097  1.00  0.00     0.005 C 
ATOM     23  C   UNL     1      -6.405  -1.701  -0.873  1.00  0.00     0.031 C 
ATOM     24  C   UNL     1      -6.313  -1.545  -3.369  1.00  0.00    -0.000 C 
BRANCH  24  25
ATOM     25  C   UNL     1      -7.632  -2.179  -3.435  1.00  0.00     0.004 C 
ATOM     26  C   UNL     1      -8.212  -2.406  -4.631  1.00  0.00    -0.040 C 
ATOM     27  C   UNL     1      -7.553  -2.024  -5.897  1.00  0.00    -0.023 C 
ATOM     28  C   UNL     1      -9.575  -3.060  -4.742  1.00  0.00     0.067 C 
ATOM     29  C   UNL     1      -7.614  -3.038  -7.028  1.00  0.00     0.146 C 
ATOM     30  C   UNL     1      -6.934  -0.852  -6.037  1.00  0.00     0.015 C 
ATOM     31  C   UNL     1      -9.502  -4.151  -5.815  1.00  0.00     0.121 C 
ATOM     32  C   UNL     1      -9.057  -3.541  -7.144  1.00  0.00     0.068 C 
BRANCH  29  33
ATOM     33  O   UNL     1      -7.221  -2.414  -8.252  1.00  0.00    -0.388 OA
ATOM     34  H   UNL     1      -7.822  -1.651  -8.441  1.00  0.00     0.211 HD
ENDBRANCH  29  33
BRANCH  31  35
ATOM     35  O   UNL     1     -10.790  -4.748  -5.974  1.00  0.00    -0.393 OA
ATOM     36  H   UNL     1     -11.444  -4.058  -6.250  1.00  0.00     0.210 HD
ENDBRANCH  31  35
ENDBRANCH  24  25
ENDBRANCH   1  14
TORSDOF 10
