REMARK SMILES Cc1nn(-c2ccccc2)c(Nc2nc3ccccc3n2Cc2ccccc2)c1[C@H](O)c1ccncc1
REMARK SMILES IDX 12 1 11 3 1 4 2 5 3 6 29 7 4 8 30 9 32 10 37 11 33 12 36 13
REMARK SMILES IDX 34 14 35 15 31 16 5 18 10 19 6 20 9 21 7 22 8 23 13 24 21 25
REMARK SMILES IDX 14 26 20 27 15 28 19 29 16 30 18 31 17 32 22 33 23 34 28 35
REMARK SMILES IDX 24 36 27 37 25 38 26 39
REMARK H PARENT 12 2 31 17
REMARK Flexibility Score: inf
ROOT
ATOM      1  N   UNL     1      -0.332  -2.977   2.054  1.00  0.00    -0.310 N 
ATOM      2  H   UNL     1       0.434  -2.770   2.712  1.00  0.00     0.171 HD
ENDROOT
BRANCH   1   3
ATOM      3  C   UNL     1      -0.464  -2.233   0.884  1.00  0.00     0.142 A 
ATOM      4  C   UNL     1      -1.086   0.815  -1.101  1.00  0.00     0.069 C 
ATOM      5  C   UNL     1      -0.796  -0.558  -0.552  1.00  0.00     0.068 A 
ATOM      6  N   UNL     1      -0.545  -1.629  -1.263  1.00  0.00    -0.171 NA
ATOM      7  C   UNL     1      -0.756  -0.905   0.801  1.00  0.00     0.051 A 
ATOM      8  N   UNL     1      -0.326  -2.700  -0.387  1.00  0.00    -0.217 N 
BRANCH   7   9
ATOM      9  C   UNL     1      -0.994   0.025   1.963  1.00  0.00     0.180 C 
BRANCH   9  10
ATOM     10  C   UNL     1       0.218   0.898   2.163  1.00  0.00    -0.012 A 
ATOM     11  C   UNL     1       1.200   0.549   3.077  1.00  0.00     0.027 A 
ATOM     12  C   UNL     1       0.379   2.066   1.434  1.00  0.00     0.027 A 
ATOM     13  C   UNL     1       2.298   1.375   3.234  1.00  0.00     0.111 A 
ATOM     14  C   UNL     1       1.501   2.844   1.648  1.00  0.00     0.111 A 
ATOM     15  N   UNL     1       2.416   2.481   2.526  1.00  0.00    -0.265 NA
ENDBRANCH   9  10
BRANCH   9  16
ATOM     16  O   UNL     1      -2.132   0.844   1.691  1.00  0.00    -0.383 OA
ATOM     17  H   UNL     1      -2.929   0.271   1.560  1.00  0.00     0.211 HD
ENDBRANCH   9  16
ENDBRANCH   7   9
BRANCH   8  18
ATOM     18  C   UNL     1      -0.024  -4.018  -0.755  1.00  0.00     0.067 A 
ATOM     19  C   UNL     1      -0.558  -4.556  -1.919  1.00  0.00     0.028 A 
ATOM     20  C   UNL     1       0.814  -4.787   0.041  1.00  0.00     0.028 A 
ATOM     21  C   UNL     1      -0.258  -5.855  -2.278  1.00  0.00     0.002 A 
ATOM     22  C   UNL     1       1.106  -6.088  -0.321  1.00  0.00     0.002 A 
ATOM     23  C   UNL     1       0.573  -6.621  -1.480  1.00  0.00     0.000 A 
ENDBRANCH   8  18
ENDBRANCH   1   3
BRANCH   1  24
ATOM     24  C   UNL     1      -1.226  -3.991   2.333  1.00  0.00     0.209 A 
ATOM     25  N   UNL     1      -1.158  -4.822   3.414  1.00  0.00    -0.306 N 
ATOM     26  N   UNL     1      -2.262  -4.303   1.595  1.00  0.00    -0.213 NA
ATOM     27  C   UNL     1      -2.232  -5.692   3.331  1.00  0.00     0.070 A 
ATOM     28  C   UNL     1      -2.925  -5.347   2.159  1.00  0.00     0.091 A 
ATOM     29  C   UNL     1      -2.686  -6.737   4.122  1.00  0.00     0.028 A 
ATOM     30  C   UNL     1      -4.069  -6.064   1.800  1.00  0.00     0.031 A 
ATOM     31  C   UNL     1      -3.817  -7.435   3.754  1.00  0.00     0.002 A 
ATOM     32  C   UNL     1      -4.505  -7.099   2.597  1.00  0.00     0.002 A 
BRANCH  25  33
ATOM     33  C   UNL     1      -0.141  -4.795   4.468  1.00  0.00     0.161 C 
BRANCH  33  34
ATOM     34  C   UNL     1      -0.589  -3.878   5.577  1.00  0.00    -0.028 A 
ATOM     35  C   UNL     1      -1.334  -4.378   6.629  1.00  0.00     0.005 A 
ATOM     36  C   UNL     1      -0.252  -2.538   5.545  1.00  0.00     0.005 A 
ATOM     37  C   UNL     1      -1.745  -3.538   7.646  1.00  0.00     0.000 A 
ATOM     38  C   UNL     1      -0.668  -1.696   6.559  1.00  0.00     0.000 A 
ATOM     39  C   UNL     1      -1.412  -2.196   7.611  1.00  0.00     0.000 A 
ENDBRANCH  33  34
ENDBRANCH  25  33
ENDBRANCH   1  24
TORSDOF 8
