REMARK SMILES CSc1ccc(-c2nc3c(s2)CN(C(=O)C[C@H]([NH3+])Cc2cc(F)ccc2F)CC3)cc1
REMARK SMILES IDX 16 1 14 2 15 3 13 4 7 5 11 6 8 7 10 8 9 9 12 10 29 11 28 12
REMARK SMILES IDX 6 13 3 14 31 15 4 16 30 17 5 18 2 19 1 20 17 21 19 22 20 23
REMARK SMILES IDX 26 24 21 25 25 26 27 27 22 28 24 29 23 30 18 31
REMARK H PARENT 18 32 18 33 18 34
REMARK Flexibility Score: inf
ROOT
ATOM      1  C   UNL     1       4.314   0.172  -1.480  1.00  0.00     0.165 C 
ENDROOT
BRANCH   1   2
ATOM      2  C   UNL     1       4.792   0.047  -2.904  1.00  0.00     0.228 C 
ATOM      3  O   UNL     1       4.177   0.587  -3.799  1.00  0.00    -0.275 OA
BRANCH   2   4
ATOM      4  N   UNL     1       5.902  -0.664  -3.183  1.00  0.00    -0.337 N 
ATOM      5  C   UNL     1      10.762  -0.890  -2.601  1.00  0.00     0.123 A 
ATOM      6  S   UNL     1       9.544  -1.466  -1.423  1.00  0.00    -0.117 S 
ATOM      7  N   UNL     1       9.987  -0.501  -3.600  1.00  0.00    -0.241 NA
ATOM      8  C   UNL     1       8.119  -1.117  -2.418  1.00  0.00     0.048 A 
ATOM      9  C   UNL     1       8.663  -0.592  -3.553  1.00  0.00     0.059 A 
ATOM     10  C   UNL     1       6.675  -1.333  -2.115  1.00  0.00     0.168 C 
ATOM     11  C   UNL     1       7.762  -0.133  -4.696  1.00  0.00     0.079 C 
ATOM     12  C   UNL     1       6.391  -0.810  -4.562  1.00  0.00     0.126 C 
BRANCH   5  13
ATOM     13  C   UNL     1      12.235  -0.859  -2.488  1.00  0.00     0.010 A 
ATOM     14  C   UNL     1      14.998  -0.799  -2.277  1.00  0.00     0.007 A 
ATOM     15  C   UNL     1      14.380  -0.334  -3.433  1.00  0.00     0.016 A 
ATOM     16  C   UNL     1      14.232  -1.295  -1.226  1.00  0.00     0.016 A 
ATOM     17  C   UNL     1      13.007  -0.367  -3.543  1.00  0.00     0.012 A 
ATOM     18  C   UNL     1      12.858  -1.325  -1.329  1.00  0.00     0.012 A 
BRANCH  14  19
ATOM     19  S   UNL     1      16.754  -0.762  -2.143  1.00  0.00    -0.130 SA
ATOM     20  C   UNL     1      17.300  -0.051  -3.720  1.00  0.00     0.091 C 
ENDBRANCH  14  19
ENDBRANCH   5  13
ENDBRANCH   2   4
ENDBRANCH   1   2
BRANCH   1  21
ATOM     21  C   UNL     1       3.044   1.024  -1.441  1.00  0.00     0.194 C 
BRANCH  21  22
ATOM     22  C   UNL     1       2.490   1.047  -0.015  1.00  0.00     0.104 C 
BRANCH  22  23
ATOM     23  C   UNL     1       1.175   1.783   0.000  1.00  0.00    -0.003 A 
ATOM     24  C   UNL     1       1.156   3.167   0.007  1.00  0.00     0.126 A 
ATOM     25  C   UNL     1      -0.013   1.076   0.008  1.00  0.00     0.046 A 
ATOM     26  C   UNL     1      -0.052   3.843   0.022  1.00  0.00     0.042 A 
ATOM     27  F   UNL     1       2.317   3.859   0.001  1.00  0.00    -0.207 F 
ATOM     28  C   UNL     1      -1.221   1.752   0.017  1.00  0.00     0.123 A 
ATOM     29  C   UNL     1      -1.239   3.136   0.029  1.00  0.00     0.042 A 
ATOM     30  F   UNL     1      -2.381   1.060   0.020  1.00  0.00    -0.207 F 
ENDBRANCH  22  23
ENDBRANCH  21  22
BRANCH  21  31
ATOM     31  N   UNL     1       3.370   2.389  -1.889  1.00  0.00    -0.354 N 
ATOM     32  H   UNL     1       3.734   2.362  -2.852  1.00  0.00     0.344 HD
ATOM     33  H   UNL     1       4.078   2.801  -1.265  1.00  0.00     0.344 HD
ATOM     34  H   UNL     1       2.518   2.967  -1.865  1.00  0.00     0.344 HD
ENDBRANCH  21  31
ENDBRANCH   1  21
TORSDOF 8
