REMARK SMILES CC1(C)Cc2c(cnn2-c2ccccc2)[C@H](NC(=O)c2ccc(-c3ccccc3)[nH]c2=O)C1
REMARK SMILES IDX 17 1 18 2 19 3 16 5 1 6 2 7 33 8 4 9 3 10 5 11 6 12 9 13
REMARK SMILES IDX 7 14 8 15 10 16 15 17 11 18 14 19 12 20 13 21 20 22 31 23
REMARK SMILES IDX 21 24 30 25 32 26 22 27 23 28 24 30 29 31 25 32 28 33 26 34
REMARK SMILES IDX 27 35
REMARK H PARENT 17 4 30 29
REMARK Flexibility Score: inf
ROOT
ATOM      1  N   UNL     1      -3.663   1.704   0.130  1.00  0.00    -0.345 N 
ATOM      2  C   UNL     1      -2.499   1.033   0.019  1.00  0.00     0.257 C 
ATOM      3  O   UNL     1      -2.503  -0.179  -0.084  1.00  0.00    -0.269 OA
ATOM      4  H   UNL     1      -3.665   2.734   0.136  1.00  0.00     0.164 HD
ENDROOT
BRANCH   1   5
ATOM      5  C   UNL     1      -4.925   0.968   0.241  1.00  0.00     0.116 C 
ATOM      6  C   UNL     1      -7.397  -0.271  -0.348  1.00  0.00     0.011 C 
ATOM      7  C   UNL     1      -7.415   1.186   0.120  1.00  0.00    -0.028 C 
ATOM      8  C   UNL     1      -6.083   1.853  -0.235  1.00  0.00     0.037 C 
ATOM      9  C   UNL     1      -7.622   1.232   1.639  1.00  0.00     0.063 C 
ATOM     10  C   UNL     1      -8.558   1.930  -0.574  1.00  0.00     0.011 C 
ATOM     11  C   UNL     1      -6.371   0.717   2.305  1.00  0.00     0.050 A 
ATOM     12  C   UNL     1      -5.171   0.597   1.683  1.00  0.00     0.016 A 
ATOM     13  N   UNL     1      -6.220   0.299   3.575  1.00  0.00    -0.237 N 
ATOM     14  C   UNL     1      -4.257   0.088   2.604  1.00  0.00     0.141 A 
ATOM     15  N   UNL     1      -4.883  -0.093   3.742  1.00  0.00    -0.176 NA
BRANCH  13  16
ATOM     16  C   UNL     1      -7.220   0.262   4.558  1.00  0.00     0.065 A 
ATOM     17  C   UNL     1      -7.231  -0.757   5.500  1.00  0.00     0.028 A 
ATOM     18  C   UNL     1      -8.197   1.248   4.593  1.00  0.00     0.028 A 
ATOM     19  C   UNL     1      -8.218  -0.791   6.467  1.00  0.00     0.002 A 
ATOM     20  C   UNL     1      -9.184   1.205   5.558  1.00  0.00     0.002 A 
ATOM     21  C   UNL     1      -9.193   0.189   6.496  1.00  0.00     0.000 A 
ENDBRANCH  13  16
ENDBRANCH   1   5
BRANCH   2  22
ATOM     22  C   UNL     1      -1.226   1.766   0.023  1.00  0.00     0.104 A 
ATOM     23  C   UNL     1      -1.214   3.184   0.024  1.00  0.00     0.261 A 
ATOM     24  C   UNL     1      -0.013   1.075   0.029  1.00  0.00     0.022 A 
ATOM     25  N   UNL     1      -0.043   3.849   0.022  1.00  0.00    -0.321 N 
ATOM     26  O   UNL     1      -2.265   3.801   0.023  1.00  0.00    -0.269 OA
ATOM     27  C   UNL     1       1.176   1.795   0.026  1.00  0.00     0.028 A 
ATOM     28  C   UNL     1       1.145   3.177   0.023  1.00  0.00     0.048 A 
ATOM     29  H   UNL     1      -0.044   4.879   0.019  1.00  0.00     0.170 HD
BRANCH  28  30
ATOM     30  C   UNL     1       2.411   3.935   0.020  1.00  0.00    -0.002 A 
ATOM     31  C   UNL     1       2.393   5.332   0.016  1.00  0.00     0.010 A 
ATOM     32  C   UNL     1       3.634   3.259   0.027  1.00  0.00     0.010 A 
ATOM     33  C   UNL     1       3.580   6.033   0.014  1.00  0.00     0.001 A 
ATOM     34  C   UNL     1       4.813   3.973   0.019  1.00  0.00     0.001 A 
ATOM     35  C   UNL     1       4.788   5.357   0.015  1.00  0.00     0.000 A 
ENDBRANCH  28  30
ENDBRANCH   2  22
TORSDOF 4
