REMARK SMILES Cn1c(=O)c2c(nc(N/N=C/c3ccc(Br)cc3)n2Cc2ccccc2)n(C)c1=O
REMARK SMILES IDX 28 1 27 2 6 3 5 4 3 5 4 6 2 7 29 8 30 9 1 10 19 11 8 12 7 13
REMARK SMILES IDX 9 14 10 16 11 17 12 18 18 19 13 20 17 21 14 22 15 23 16 24
REMARK SMILES IDX 20 25 21 26 26 27 22 28 25 29 23 30 24 31
REMARK H PARENT 9 15
REMARK Flexibility Score: inf
ROOT
ATOM      1  C   UNL     1       0.071  -4.574   1.038  1.00  0.00     0.157 C 
ATOM      2  N   UNL     1       0.059  -3.192   1.524  1.00  0.00    -0.279 N 
ATOM      3  C   UNL     1       0.036  -2.140   0.622  1.00  0.00     0.170 A 
ATOM      4  C   UNL     1       0.024  -0.838   1.111  1.00  0.00     0.154 A 
ATOM      5  C   UNL     1       0.035  -0.627   2.501  1.00  0.00     0.282 A 
ATOM      6  O   UNL     1       0.024   0.506   2.952  1.00  0.00    -0.267 OA
ATOM      7  N   UNL     1       0.057  -1.690   3.331  1.00  0.00    -0.261 N 
ATOM      8  C   UNL     1       0.069  -2.945   2.848  1.00  0.00     0.332 A 
ATOM      9  O   UNL     1       0.089  -3.879   3.625  1.00  0.00    -0.247 OA
ATOM     10  C   UNL     1       0.068  -1.475   4.780  1.00  0.00     0.159 C 
ATOM     11  N   UNL     1       0.002  -0.004   0.002  1.00  0.00    -0.298 N 
ATOM     12  C   UNL     1      -0.003  -0.810  -1.094  1.00  0.00     0.226 A 
ATOM     13  N   UNL     1       0.023  -2.070  -0.710  1.00  0.00    -0.193 NA
ENDROOT
BRANCH  12  14
ATOM     14  N   UNL     1      -0.028  -0.377  -2.400  1.00  0.00    -0.247 N 
ATOM     15  H   UNL     1      -0.045   0.632  -2.608  1.00  0.00     0.193 HD
BRANCH  14  16
ATOM     16  N   UNL     1      -0.031  -1.307  -3.447  1.00  0.00    -0.181 NA
ATOM     17  C   UNL     1      -0.055  -0.899  -4.679  1.00  0.00     0.141 C 
BRANCH  17  18
ATOM     18  C   UNL     1      -0.058  -1.879  -5.781  1.00  0.00    -0.005 A 
ATOM     19  C   UNL     1      -0.084  -1.442  -7.108  1.00  0.00     0.011 A 
ATOM     20  C   UNL     1      -0.030  -3.247  -5.503  1.00  0.00     0.011 A 
ATOM     21  C   UNL     1      -0.086  -2.364  -8.133  1.00  0.00     0.016 A 
ATOM     22  C   UNL     1      -0.037  -4.158  -6.538  1.00  0.00     0.016 A 
ATOM     23  C   UNL     1      -0.063  -3.719  -7.851  1.00  0.00     0.018 A 
ATOM     24  Br  UNL     1      -0.066  -4.976  -9.264  1.00  0.00    -0.051 Br
ENDBRANCH  17  18
ENDBRANCH  14  16
ENDBRANCH  12  14
BRANCH  11  25
ATOM     25  C   UNL     1      -0.018   1.461   0.010  1.00  0.00     0.161 C 
BRANCH  25  26
ATOM     26  C   UNL     1       1.396   1.982  -0.001  1.00  0.00    -0.028 A 
ATOM     27  C   UNL     1       2.033   2.228  -1.203  1.00  0.00     0.005 A 
ATOM     28  C   UNL     1       2.054   2.221   1.192  1.00  0.00     0.005 A 
ATOM     29  C   UNL     1       3.330   2.707  -1.212  1.00  0.00     0.000 A 
ATOM     30  C   UNL     1       3.352   2.695   1.182  1.00  0.00     0.000 A 
ATOM     31  C   UNL     1       3.990   2.940  -0.020  1.00  0.00     0.000 A 
ENDBRANCH  25  26
ENDBRANCH  11  25
TORSDOF 5
