REMARK SMILES CNC(=O)CN(C)c1nc(CN2CCOCC2)nc2sc3c(c12)CCC3
REMARK SMILES IDX 8 1 23 2 22 3 21 4 20 5 19 6 18 7 10 8 9 9 26 10 25 11 24 12
REMARK SMILES IDX 6 13 7 14 5 15 3 16 1 17 2 18 4 20 11 21 12 22 17 23 13 24
REMARK SMILES IDX 16 25 14 26 15 27
REMARK H PARENT 2 19
REMARK Flexibility Score: inf
ROOT
ATOM      1  C   UNL     1      -0.137   1.003   2.351  1.00  0.00     0.141 A 
ATOM      2  C   UNL     1      -0.559   1.417   3.644  1.00  0.00     0.057 A 
ATOM      3  C   UNL     1      -1.585   2.413   3.997  1.00  0.00    -0.021 A 
ATOM      4  C   UNL     1      -1.806   2.618   5.305  1.00  0.00     0.011 A 
ATOM      5  S   UNL     1      -0.689   1.517   6.142  1.00  0.00    -0.120 S 
ATOM      6  C   UNL     1       0.076   0.779   4.725  1.00  0.00     0.129 A 
ATOM      7  N   UNL     1       1.010  -0.133   4.534  1.00  0.00    -0.220 NA
ATOM      8  C   UNL     1       1.366  -0.473   3.310  1.00  0.00     0.146 A 
ATOM      9  N   UNL     1       0.806   0.080   2.249  1.00  0.00    -0.214 NA
ATOM     10  C   UNL     1      -2.871   3.655   5.544  1.00  0.00     0.047 C 
ATOM     11  C   UNL     1      -3.608   3.774   4.192  1.00  0.00     0.010 C 
ATOM     12  C   UNL     1      -2.514   3.333   3.200  1.00  0.00     0.038 C 
ENDROOT
BRANCH   1  13
ATOM     13  N   UNL     1      -0.700   1.560   1.217  1.00  0.00    -0.350 N 
ATOM     14  C   UNL     1       0.275   2.390   0.498  1.00  0.00     0.146 C 
BRANCH  13  15
ATOM     15  C   UNL     1      -1.254   0.520   0.339  1.00  0.00     0.217 C 
BRANCH  15  16
ATOM     16  C   UNL     1      -2.068   1.165  -0.753  1.00  0.00     0.239 C 
ATOM     17  C   UNL     1      -3.466   1.028  -2.743  1.00  0.00     0.142 C 
ATOM     18  N   UNL     1      -2.675   0.401  -1.682  1.00  0.00    -0.358 N 
ATOM     19  H   UNL     1      -2.583  -0.625  -1.645  1.00  0.00     0.163 HD
ATOM     20  O   UNL     1      -2.176   2.372  -0.796  1.00  0.00    -0.273 OA
ENDBRANCH  15  16
ENDBRANCH  13  15
ENDBRANCH   1  13
BRANCH   8  21
ATOM     21  C   UNL     1       2.435  -1.518   3.118  1.00  0.00     0.162 C 
BRANCH  21  22
ATOM     22  N   UNL     1       3.751  -0.868   3.061  1.00  0.00    -0.291 NA
ATOM     23  C   UNL     1       4.833  -1.862   3.113  1.00  0.00     0.113 C 
ATOM     24  C   UNL     1       3.872  -0.028   1.861  1.00  0.00     0.113 C 
ATOM     25  C   UNL     1       6.183  -1.139   3.112  1.00  0.00     0.175 C 
ATOM     26  C   UNL     1       5.231   0.676   1.872  1.00  0.00     0.175 C 
ATOM     27  O   UNL     1       6.269  -0.304   1.954  1.00  0.00    -0.379 OA
ENDBRANCH  21  22
ENDBRANCH   8  21
TORSDOF 5
