REMARK SMILES COC(=O)[C@H](CO)NC(=O)[C@@H](CSC(c1ccccc1)(c1ccccc1)c1ccccc1)NC(=O)OCc1ccccc1
REMARK SMILES IDX 11 1 9 2 8 3 10 5 5 6 3 7 4 8 2 9 1 10 6 11 7 12 12 14 13 15
REMARK SMILES IDX 14 16 15 17 20 18 16 19 19 20 17 21 18 22 21 23 26 24 22 25
REMARK SMILES IDX 25 26 23 27 24 28 27 29 32 30 28 31 31 32 29 33 30 34 33 35
REMARK SMILES IDX 34 36 35 38 36 39 37 40 38 41 43 42 39 43 42 44 40 45 41 46
REMARK H PARENT 8 4 7 13 33 37
REMARK Flexibility Score: inf
ROOT
ATOM      1  C   UNL     1       0.962   4.017   4.035  1.00  0.00     0.184 C 
ENDROOT
BRANCH   1   2
ATOM      2  C   UNL     1       1.647   3.632   2.749  1.00  0.00     0.244 C 
ATOM      3  N   UNL     1       0.950   3.607   1.596  1.00  0.00    -0.339 N 
ATOM      4  H   UNL     1      -0.051   3.849   1.594  1.00  0.00     0.164 HD
ATOM      5  O   UNL     1       2.826   3.347   2.751  1.00  0.00    -0.273 OA
BRANCH   3   6
ATOM      6  C   UNL     1       1.616   3.233   0.345  1.00  0.00     0.218 C 
BRANCH   6   7
ATOM      7  C   UNL     1       0.877   3.841  -0.819  1.00  0.00     0.330 C 
ATOM      8  O   UNL     1      -0.105   4.518  -0.624  1.00  0.00    -0.250 OA
BRANCH   7   9
ATOM      9  O   UNL     1       1.309   3.632  -2.072  1.00  0.00    -0.467 OA
ATOM     10  C   UNL     1       0.548   4.249  -3.143  1.00  0.00     0.282 C 
ENDBRANCH   7   9
ENDBRANCH   6   7
BRANCH   6  11
ATOM     11  C   UNL     1       1.621   1.709   0.206  1.00  0.00     0.193 C 
BRANCH  11  12
ATOM     12  O   UNL     1       0.278   1.238   0.074  1.00  0.00    -0.394 OA
ATOM     13  H   UNL     1      -0.137   1.641  -0.729  1.00  0.00     0.210 HD
ENDBRANCH  11  12
ENDBRANCH   6  11
ENDBRANCH   3   6
ENDBRANCH   1   2
BRANCH   1  14
ATOM     14  C   UNL     1      -0.180   3.039   4.316  1.00  0.00     0.106 C 
BRANCH  14  15
ATOM     15  S   UNL     1      -1.097   3.586   5.783  1.00  0.00    -0.138 SA
BRANCH  15  16
ATOM     16  C   UNL     1      -2.488   2.426   5.889  1.00  0.00     0.091 C 
BRANCH  16  17
ATOM     17  C   UNL     1      -1.969   1.048   6.210  1.00  0.00    -0.023 A 
ATOM     18  C   UNL     1      -0.609   0.831   6.327  1.00  0.00     0.006 A 
ATOM     19  C   UNL     1      -2.854   0.002   6.393  1.00  0.00     0.006 A 
ATOM     20  C   UNL     1      -0.133  -0.433   6.622  1.00  0.00     0.000 A 
ATOM     21  C   UNL     1      -2.378  -1.263   6.683  1.00  0.00     0.000 A 
ATOM     22  C   UNL     1      -1.018  -1.480   6.799  1.00  0.00     0.000 A 
ENDBRANCH  16  17
BRANCH  16  23
ATOM     23  C   UNL     1      -3.433   2.873   6.975  1.00  0.00    -0.023 A 
ATOM     24  C   UNL     1      -4.798   2.769   6.788  1.00  0.00     0.006 A 
ATOM     25  C   UNL     1      -2.934   3.381   8.159  1.00  0.00     0.006 A 
ATOM     26  C   UNL     1      -5.665   3.178   7.784  1.00  0.00     0.000 A 
ATOM     27  C   UNL     1      -3.800   3.795   9.153  1.00  0.00     0.000 A 
ATOM     28  C   UNL     1      -5.166   3.692   8.967  1.00  0.00     0.000 A 
ENDBRANCH  16  23
BRANCH  16  29
ATOM     29  C   UNL     1      -3.217   2.394   4.571  1.00  0.00    -0.023 A 
ATOM     30  C   UNL     1      -3.784   3.549   4.066  1.00  0.00     0.006 A 
ATOM     31  C   UNL     1      -3.313   1.210   3.863  1.00  0.00     0.006 A 
ATOM     32  C   UNL     1      -4.453   3.520   2.857  1.00  0.00     0.000 A 
ATOM     33  C   UNL     1      -3.986   1.180   2.656  1.00  0.00     0.000 A 
ATOM     34  C   UNL     1      -4.554   2.335   2.151  1.00  0.00     0.000 A 
ENDBRANCH  16  29
ENDBRANCH  15  16
ENDBRANCH  14  15
ENDBRANCH   1  14
BRANCH   1  35
ATOM     35  N   UNL     1       1.928   3.969   5.136  1.00  0.00    -0.309 N 
ATOM     36  C   UNL     1       2.716   5.033   5.388  1.00  0.00     0.408 C 
ATOM     37  H   UNL     1       2.005   3.122   5.717  1.00  0.00     0.167 HD
ATOM     38  O   UNL     1       2.625   6.032   4.703  1.00  0.00    -0.225 OA
BRANCH  36  39
ATOM     39  O   UNL     1       3.603   4.989   6.400  1.00  0.00    -0.445 OA
BRANCH  39  40
ATOM     40  C   UNL     1       4.418   6.171   6.613  1.00  0.00     0.270 C 
BRANCH  40  41
ATOM     41  C   UNL     1       5.345   5.939   7.779  1.00  0.00    -0.011 A 
ATOM     42  C   UNL     1       6.598   5.395   7.567  1.00  0.00     0.007 A 
ATOM     43  C   UNL     1       4.944   6.273   9.059  1.00  0.00     0.007 A 
ATOM     44  C   UNL     1       7.449   5.182   8.636  1.00  0.00     0.000 A 
ATOM     45  C   UNL     1       5.792   6.056  10.128  1.00  0.00     0.000 A 
ATOM     46  C   UNL     1       7.045   5.512   9.917  1.00  0.00     0.000 A 
ENDBRANCH  40  41
ENDBRANCH  39  40
ENDBRANCH  36  39
ENDBRANCH   1  35
TORSDOF 16
