REMARK SMILES CC(C)[C@@H](OC(=O)C1CCN(c2nc3ccccc3o2)CC1)C(=O)NCCc1c[nH]c2ccccc12
REMARK SMILES IDX 4 1 2 2 1 3 3 4 23 5 24 6 25 7 26 9 27 10 28 11 36 12 29 13
REMARK SMILES IDX 31 14 35 15 30 16 32 17 34 18 33 20 5 21 6 22 7 23 8 24
REMARK SMILES IDX 22 25 9 26 21 27 10 28 11 29 12 30 20 31 13 32 19 33 14 34
REMARK SMILES IDX 18 35 15 36 17 37 16 38
REMARK H PARENT 25 8 30 19
REMARK Flexibility Score: inf
ROOT
ATOM      1  C   UNL     1      -4.854  -3.364  -2.446  1.00  0.00     0.267 C 
ENDROOT
BRANCH   1   2
ATOM      2  C   UNL     1      -5.846  -2.351  -1.869  1.00  0.00     0.034 C 
ATOM      3  C   UNL     1      -7.229  -2.996  -1.763  1.00  0.00     0.012 C 
ATOM      4  C   UNL     1      -5.379  -1.915  -0.479  1.00  0.00     0.012 C 
ENDBRANCH   1   2
BRANCH   1   5
ATOM      5  C   UNL     1      -3.527  -2.689  -2.680  1.00  0.00     0.261 C 
ATOM      6  O   UNL     1      -2.819  -2.399  -1.738  1.00  0.00    -0.271 OA
ATOM      7  N   UNL     1      -3.126  -2.408  -3.936  1.00  0.00    -0.353 N 
ATOM      8  H   UNL     1      -3.691  -2.721  -4.739  1.00  0.00     0.163 HD
BRANCH   7   9
ATOM      9  C   UNL     1      -1.887  -1.659  -4.159  1.00  0.00     0.121 C 
BRANCH   9  10
ATOM     10  C   UNL     1      -1.665  -1.477  -5.662  1.00  0.00     0.059 C 
BRANCH  10  11
ATOM     11  C   UNL     1      -0.391  -0.706  -5.891  1.00  0.00    -0.021 A 
ATOM     12  C   UNL     1       0.964  -1.261  -5.955  1.00  0.00     0.003 A 
ATOM     13  C   UNL     1      -0.281   0.619  -6.077  1.00  0.00     0.087 A 
ATOM     14  C   UNL     1       1.821  -0.169  -6.186  1.00  0.00     0.046 A 
ATOM     15  C   UNL     1       1.491  -2.548  -5.845  1.00  0.00     0.010 A 
ATOM     16  N   UNL     1       1.032   0.958  -6.254  1.00  0.00    -0.361 N 
ATOM     17  C   UNL     1       3.190  -0.388  -6.296  1.00  0.00     0.026 A 
ATOM     18  C   UNL     1       2.840  -2.741  -5.951  1.00  0.00     0.001 A 
ATOM     19  H   UNL     1       1.380   1.915  -6.415  1.00  0.00     0.166 HD
ATOM     20  C   UNL     1       3.689  -1.667  -6.178  1.00  0.00     0.002 A 
ENDBRANCH  10  11
ENDBRANCH   9  10
ENDBRANCH   7   9
ENDBRANCH   1   5
BRANCH   1  21
ATOM     21  O   UNL     1      -5.364  -3.878  -3.704  1.00  0.00    -0.452 OA
BRANCH  21  22
ATOM     22  C   UNL     1      -6.136  -4.975  -3.645  1.00  0.00     0.309 C 
ATOM     23  O   UNL     1      -6.377  -5.488  -2.578  1.00  0.00    -0.252 OA
BRANCH  22  24
ATOM     24  C   UNL     1      -6.702  -5.566  -4.911  1.00  0.00     0.103 C 
ATOM     25  C   UNL     1      -7.539  -6.801  -4.569  1.00  0.00     0.037 C 
ATOM     26  C   UNL     1      -7.592  -4.532  -5.606  1.00  0.00     0.037 C 
ATOM     27  C   UNL     1      -8.161  -7.362  -5.850  1.00  0.00     0.122 C 
ATOM     28  C   UNL     1      -8.211  -5.158  -6.857  1.00  0.00     0.122 C 
ATOM     29  N   UNL     1      -9.003  -6.335  -6.476  1.00  0.00    -0.326 N 
BRANCH  29  30
ATOM     30  C   UNL     1      -9.679  -6.846  -7.561  1.00  0.00     0.298 A 
ATOM     31  O   UNL     1      -9.584  -8.114  -8.001  1.00  0.00    -0.423 OA
ATOM     32  N   UNL     1     -10.505  -6.169  -8.318  1.00  0.00    -0.193 NA
ATOM     33  C   UNL     1     -10.390  -8.248  -9.079  1.00  0.00     0.156 A 
ATOM     34  C   UNL     1     -10.984  -6.994  -9.289  1.00  0.00     0.111 A 
ATOM     35  C   UNL     1     -10.692  -9.303  -9.925  1.00  0.00     0.049 A 
ATOM     36  C   UNL     1     -11.875  -6.819 -10.348  1.00  0.00     0.032 A 
ATOM     37  C   UNL     1     -11.575  -9.117 -10.970  1.00  0.00     0.004 A 
ATOM     38  C   UNL     1     -12.164  -7.879 -11.180  1.00  0.00     0.003 A 
ENDBRANCH  29  30
ENDBRANCH  22  24
ENDBRANCH  21  22
ENDBRANCH   1  21
TORSDOF 9
