REMARK SMILES CCCCN(CC)C(=O)c1sc2nc(C)c(C(=O)Nc3ccc(C)cc3C)c(-c3ccc(C)o3)c2c1N
REMARK SMILES IDX 8 1 9 2 5 3 4 4 3 5 2 6 1 7 6 8 7 9 10 10 11 11 36 12 12 13
REMARK SMILES IDX 35 14 13 15 28 16 14 17 16 18 15 19 37 20 29 23 34 24 30 25
REMARK SMILES IDX 32 26 31 27 33 28 17 29 18 30 19 31 20 33 26 34 21 35 25 36
REMARK SMILES IDX 27 37 22 38 23 39 24 40
REMARK H PARENT 37 21 37 22 19 32
REMARK Flexibility Score: inf
ROOT
ATOM      1  C   UNL     1      -1.677   0.814  -1.787  1.00  0.00     0.266 C 
ATOM      2  O   UNL     1      -2.253   1.209  -2.784  1.00  0.00    -0.268 OA
ENDROOT
BRANCH   1   3
ATOM      3  N   UNL     1      -0.712   1.566  -1.223  1.00  0.00    -0.338 N 
BRANCH   3   4
ATOM      4  C   UNL     1      -0.443   2.914  -1.731  1.00  0.00     0.120 C 
BRANCH   4   5
ATOM      5  C   UNL     1       0.613   2.842  -2.835  1.00  0.00     0.021 C 
BRANCH   5   6
ATOM      6  C   UNL     1       0.894   4.250  -3.365  1.00  0.00    -0.002 C 
ATOM      7  C   UNL     1       1.950   4.178  -4.469  1.00  0.00     0.004 C 
ENDBRANCH   5   6
ENDBRANCH   4   5
ENDBRANCH   3   4
BRANCH   3   8
ATOM      8  C   UNL     1       0.070   1.036  -0.102  1.00  0.00     0.116 C 
ATOM      9  C   UNL     1      -0.616   1.402   1.215  1.00  0.00     0.027 C 
ENDBRANCH   3   8
ENDBRANCH   1   3
BRANCH   1  10
ATOM     10  C   UNL     1      -2.022  -0.437  -1.219  1.00  0.00     0.118 A 
ATOM     11  S   UNL     1      -1.480  -1.136   0.328  1.00  0.00    -0.108 S 
ATOM     12  C   UNL     1      -2.864  -1.404  -1.727  1.00  0.00     0.066 A 
ATOM     13  C   UNL     1      -2.361  -2.677   0.268  1.00  0.00     0.127 A 
ATOM     14  C   UNL     1      -3.061  -2.619  -0.957  1.00  0.00     0.047 A 
ATOM     15  N   UNL     1      -2.436  -3.709   1.087  1.00  0.00    -0.241 NA
ATOM     16  C   UNL     1      -3.872  -3.752  -1.276  1.00  0.00     0.044 A 
ATOM     17  C   UNL     1      -3.174  -4.764   0.817  1.00  0.00     0.053 A 
ATOM     18  C   UNL     1      -3.916  -4.825  -0.367  1.00  0.00     0.073 A 
ATOM     19  C   UNL     1      -3.222  -5.913   1.791  1.00  0.00     0.067 C 
BRANCH  12  20
ATOM     20  N   UNL     1      -3.503  -1.222  -2.946  1.00  0.00    -0.397 N 
ATOM     21  H   UNL     1      -3.344  -0.353  -3.475  1.00  0.00     0.156 HD
ATOM     22  H   UNL     1      -4.130  -1.949  -3.319  1.00  0.00     0.156 HD
ENDBRANCH  12  20
BRANCH  16  23
ATOM     23  C   UNL     1      -4.644  -3.795  -2.526  1.00  0.00     0.135 A 
ATOM     24  O   UNL     1      -5.671  -2.984  -2.851  1.00  0.00    -0.461 OA
ATOM     25  C   UNL     1      -4.450  -4.666  -3.558  1.00  0.00     0.051 A 
ATOM     26  C   UNL     1      -6.129  -3.312  -4.068  1.00  0.00     0.101 A 
ATOM     27  C   UNL     1      -5.405  -4.349  -4.540  1.00  0.00     0.046 A 
ATOM     28  C   UNL     1      -7.269  -2.637  -4.788  1.00  0.00     0.087 C 
ENDBRANCH  16  23
BRANCH  18  29
ATOM     29  C   UNL     1      -4.741  -6.008  -0.661  1.00  0.00     0.258 C 
ATOM     30  O   UNL     1      -4.263  -6.946  -1.272  1.00  0.00    -0.269 OA
ATOM     31  N   UNL     1      -6.024  -6.053  -0.253  1.00  0.00    -0.322 N 
ATOM     32  H   UNL     1      -6.406  -5.296   0.332  1.00  0.00     0.170 HD
BRANCH  31  33
ATOM     33  C   UNL     1      -6.838  -7.128  -0.623  1.00  0.00     0.044 A 
ATOM     34  C   UNL     1      -7.939  -7.468   0.153  1.00  0.00    -0.027 A 
ATOM     35  C   UNL     1      -6.545  -7.863  -1.765  1.00  0.00     0.027 A 
ATOM     36  C   UNL     1      -8.743  -8.528  -0.217  1.00  0.00     0.009 A 
ATOM     37  C   UNL     1      -8.257  -6.678   1.397  1.00  0.00     0.046 C 
ATOM     38  C   UNL     1      -7.351  -8.924  -2.127  1.00  0.00     0.005 A 
ATOM     39  C   UNL     1      -8.448  -9.257  -1.355  1.00  0.00    -0.051 A 
ATOM     40  C   UNL     1      -9.325 -10.416  -1.753  1.00  0.00     0.044 C 
ENDBRANCH  31  33
ENDBRANCH  18  29
ENDBRANCH   1  10
TORSDOF 10
