REMARK SMILES COC(=O)[C@@H]1Cc2c([nH]c3ccccc23)[C@H]2C[C@H]([NH2+]Cc3cccnc3)C[C@@H](c3ccc(C(F)(F)F)cc3)N21
REMARK SMILES IDX 5 1 6 2 7 3 15 4 14 5 13 6 12 7 11 8 10 9 9 10 8 11 16 12
REMARK SMILES IDX 28 13 27 14 18 15 17 16 39 17 3 19 4 20 2 21 1 22 29 23
REMARK SMILES IDX 38 24 30 25 37 26 31 27 32 28 33 29 34 30 35 31 36 32 19 33
REMARK SMILES IDX 20 36 21 37 26 38 22 39 25 40 23 41 24 42
REMARK H PARENT 9 18 19 34 19 35
REMARK Flexibility Score: inf
ROOT
ATOM      1  C   UNL     1      -1.329   1.940   0.019  1.00  0.00     0.173 C 
ATOM      2  C   UNL     1      -1.471   2.717   1.335  1.00  0.00     0.069 C 
ATOM      3  C   UNL     1      -1.708   1.723   2.445  1.00  0.00    -0.016 A 
ATOM      4  C   UNL     1      -1.601   1.904   3.875  1.00  0.00     0.003 A 
ATOM      5  C   UNL     1      -1.260   3.001   4.672  1.00  0.00     0.010 A 
ATOM      6  C   UNL     1      -1.258   2.806   6.031  1.00  0.00     0.001 A 
ATOM      7  C   UNL     1      -1.581   1.585   6.599  1.00  0.00     0.002 A 
ATOM      8  C   UNL     1      -1.924   0.483   5.836  1.00  0.00     0.026 A 
ATOM      9  C   UNL     1      -1.932   0.651   4.453  1.00  0.00     0.046 A 
ATOM     10  N   UNL     1      -2.216  -0.208   3.429  1.00  0.00    -0.357 N 
ATOM     11  C   UNL     1      -2.077   0.439   2.231  1.00  0.00     0.037 A 
ATOM     12  C   UNL     1      -2.288  -0.134   0.852  1.00  0.00     0.111 C 
ATOM     13  C   UNL     1      -2.567   0.475  -1.474  1.00  0.00     0.094 C 
ATOM     14  C   UNL     1      -3.842  -0.367  -1.578  1.00  0.00     0.089 C 
ATOM     15  C   UNL     1      -3.768  -1.531  -0.587  1.00  0.00     0.186 C 
ATOM     16  C   UNL     1      -3.561  -0.981   0.828  1.00  0.00     0.090 C 
ATOM     17  N   UNL     1      -2.464   0.991  -0.093  1.00  0.00    -0.274 NA
ATOM     18  H   UNL     1      -2.492  -1.194   3.542  1.00  0.00     0.166 HD
ENDROOT
BRANCH   1  19
ATOM     19  C   UNL     1      -0.014   1.204   0.009  1.00  0.00     0.323 C 
ATOM     20  O   UNL     1       0.021   0.034  -0.289  1.00  0.00    -0.250 OA
BRANCH  19  21
ATOM     21  O   UNL     1       1.119   1.851   0.325  1.00  0.00    -0.468 OA
ATOM     22  C   UNL     1       2.349   1.081   0.288  1.00  0.00     0.282 C 
ENDBRANCH  19  21
ENDBRANCH   1  19
BRANCH  13  23
ATOM     23  C   UNL     1      -2.652   1.638  -2.429  1.00  0.00    -0.030 A 
ATOM     24  C   UNL     1      -1.999   1.582  -3.645  1.00  0.00     0.006 A 
ATOM     25  C   UNL     1      -3.389   2.757  -2.090  1.00  0.00     0.006 A 
ATOM     26  C   UNL     1      -2.077   2.648  -4.521  1.00  0.00     0.013 A 
ATOM     27  C   UNL     1      -3.463   3.826  -2.964  1.00  0.00     0.013 A 
ATOM     28  C   UNL     1      -2.810   3.770  -4.181  1.00  0.00     0.056 A 
BRANCH  28  29
ATOM     29  C   UNL     1      -2.896   4.933  -5.136  1.00  0.00     0.416 C 
ATOM     30  F   UNL     1      -3.995   4.759  -5.983  1.00  0.00    -0.166 F 
ATOM     31  F   UNL     1      -3.047   6.121  -4.413  1.00  0.00    -0.166 F 
ATOM     32  F   UNL     1      -1.725   4.997  -5.899  1.00  0.00    -0.166 F 
ENDBRANCH  28  29
ENDBRANCH  13  23
BRANCH  15  33
ATOM     33  N   UNL     1      -2.634  -2.406  -0.937  1.00  0.00    -0.340 N 
ATOM     34  H   UNL     1      -1.860  -1.833  -1.303  1.00  0.00     0.346 HD
ATOM     35  H   UNL     1      -2.314  -2.906  -0.095  1.00  0.00     0.346 HD
BRANCH  33  36
ATOM     36  C   UNL     1      -3.041  -3.387  -1.962  1.00  0.00     0.299 C 
BRANCH  36  37
ATOM     37  C   UNL     1      -1.864  -4.266  -2.299  1.00  0.00     0.024 A 
ATOM     38  C   UNL     1      -1.641  -5.435  -1.599  1.00  0.00     0.120 A 
ATOM     39  C   UNL     1      -0.995  -3.913  -3.321  1.00  0.00     0.013 A 
ATOM     40  N   UNL     1      -0.613  -6.210  -1.889  1.00  0.00    -0.264 NA
ATOM     41  C   UNL     1       0.077  -4.750  -3.593  1.00  0.00     0.021 A 
ATOM     42  C   UNL     1       0.236  -5.904  -2.850  1.00  0.00     0.111 A 
ENDBRANCH  36  37
ENDBRANCH  33  36
ENDBRANCH  15  33
TORSDOF 7
