REMARK SMILES C[C@H]1CCc2c(sc3nc([C@H](C)Sc4nnc(N)s4)[nH]c(=O)c23)C1
REMARK SMILES IDX 13 1 11 2 12 3 10 4 1 5 2 6 24 7 3 8 6 9 4 10 5 11 7 12
REMARK SMILES IDX 23 13 8 14 21 15 9 16 22 17 20 18 14 20 19 21 15 22 17 23
REMARK SMILES IDX 16 24 18 25
REMARK H PARENT 20 19 18 26 18 27
REMARK Flexibility Score: inf
ROOT
ATOM      1  S   UNL     1      -2.424   5.460   1.034  1.00  0.00    -0.082 SA
ENDROOT
BRANCH   1   2
ATOM      2  C   UNL     1      -2.553   3.944   0.046  1.00  0.00     0.117 C 
ATOM      3  C   UNL     1      -2.958   4.301  -1.386  1.00  0.00     0.028 C 
BRANCH   2   4
ATOM      4  C   UNL     1      -1.220   3.240   0.030  1.00  0.00     0.123 A 
ATOM      5  C   UNL     1       6.735   0.264  -0.149  1.00  0.00     0.008 C 
ATOM      6  C   UNL     1       5.279   0.645  -0.423  1.00  0.00    -0.009 C 
ATOM      7  C   UNL     1       5.048   2.113  -0.036  1.00  0.00     0.050 C 
ATOM      8  C   UNL     1       4.351  -0.236   0.419  1.00  0.00     0.008 C 
ATOM      9  C   UNL     1       3.572   2.371  -0.019  1.00  0.00     0.011 A 
ATOM     10  C   UNL     1       2.901  -0.038  -0.026  1.00  0.00     0.038 C 
ATOM     11  C   UNL     1       2.582   1.454  -0.015  1.00  0.00    -0.019 A 
ATOM     12  S   UNL     1       2.747   3.939  -0.003  1.00  0.00    -0.120 S 
ATOM     13  C   UNL     1       1.210   1.960   0.001  1.00  0.00     0.080 A 
ATOM     14  C   UNL     1       1.070   3.357   0.010  1.00  0.00     0.131 A 
ATOM     15  C   UNL     1      -0.015   1.215   0.009  1.00  0.00     0.259 A 
ATOM     16  N   UNL     1      -0.122   3.947   0.024  1.00  0.00    -0.223 NA
ATOM     17  O   UNL     1       0.002  -0.004   0.002  1.00  0.00    -0.269 OA
ATOM     18  N   UNL     1      -1.183   1.883   0.018  1.00  0.00    -0.309 N 
ATOM     19  H   UNL     1      -2.067   1.354   0.016  1.00  0.00     0.171 HD
ENDBRANCH   2   4
ENDBRANCH   1   2
BRANCH   1  20
ATOM     20  C   UNL     1      -4.073   6.080   1.079  1.00  0.00     0.176 A 
ATOM     21  S   UNL     1      -4.710   7.543   1.881  1.00  0.00    -0.069 S 
ATOM     22  N   UNL     1      -5.168   5.585   0.535  1.00  0.00    -0.130 NA
ATOM     23  C   UNL     1      -6.418   7.355   1.394  1.00  0.00     0.203 A 
ATOM     24  N   UNL     1      -6.368   6.238   0.696  1.00  0.00    -0.120 NA
BRANCH  23  25
ATOM     25  N   UNL     1      -7.510   8.167   1.679  1.00  0.00    -0.374 N 
ATOM     26  H   UNL     1      -8.395   7.826   1.277  1.00  0.00     0.159 HD
ATOM     27  H   UNL     1      -7.465   9.032   2.237  1.00  0.00     0.159 HD
ENDBRANCH  23  25
ENDBRANCH   1  20
TORSDOF 4
