REMARK SMILES N#Cc1c(CCCNC(=O)c2ccccc2C(=O)c2ccccc2)nn(-c2ccc(F)cc2)c1N
REMARK SMILES IDX 7 1 8 2 9 3 10 4 11 6 16 7 15 8 12 9 14 10 13 11 17 12 18 13
REMARK SMILES IDX 19 14 22 15 23 16 21 17 24 18 20 19 6 20 5 21 4 22 25 23
REMARK SMILES IDX 3 24 26 25 34 26 2 27 1 28 27 29 33 30 28 31 32 32 29 33
REMARK SMILES IDX 30 34 31 35 35 36
REMARK H PARENT 8 5 35 37 35 38
REMARK Flexibility Score: inf
ROOT
ATOM      1  C   UNL     1      -3.686   2.341   0.391  1.00  0.00     0.116 C 
ENDROOT
BRANCH   1   2
ATOM      2  N   UNL     1      -2.442   1.583   0.234  1.00  0.00    -0.352 N 
ATOM      3  C   UNL     1      -1.257   2.224   0.231  1.00  0.00     0.252 C 
ATOM      4  O   UNL     1      -1.220   3.432   0.359  1.00  0.00    -0.269 OA
ATOM      5  H   UNL     1      -2.474   0.559   0.125  1.00  0.00     0.163 HD
BRANCH   3   6
ATOM      6  C   UNL     1      -0.002   1.458   0.072  1.00  0.00     0.050 A 
ATOM      7  C   UNL     1       1.230   2.131  -0.040  1.00  0.00     0.035 A 
ATOM      8  C   UNL     1       2.404   1.397  -0.196  1.00  0.00     0.013 A 
ATOM      9  C   UNL     1      -0.031   0.067   0.026  1.00  0.00     0.014 A 
ATOM     10  C   UNL     1       2.354   0.017  -0.238  1.00  0.00     0.001 A 
ATOM     11  C   UNL     1       1.144  -0.644  -0.128  1.00  0.00     0.001 A 
BRANCH   7  12
ATOM     12  C   UNL     1       1.277   3.608   0.006  1.00  0.00     0.193 C 
ATOM     13  O   UNL     1       1.426   4.244  -1.019  1.00  0.00    -0.289 OA
BRANCH  12  14
ATOM     14  C   UNL     1       1.141   4.312   1.298  1.00  0.00     0.023 A 
ATOM     15  C   UNL     1       0.889   5.630   3.720  1.00  0.00     0.000 A 
ATOM     16  C   UNL     1       0.961   4.249   3.693  1.00  0.00     0.001 A 
ATOM     17  C   UNL     1       0.943   6.356   2.543  1.00  0.00     0.001 A 
ATOM     18  C   UNL     1       1.080   3.585   2.490  1.00  0.00     0.012 A 
ATOM     19  C   UNL     1       1.069   5.706   1.333  1.00  0.00     0.012 A 
ENDBRANCH  12  14
ENDBRANCH   7  12
ENDBRANCH   3   6
ENDBRANCH   1   2
BRANCH   1  20
ATOM     20  C   UNL     1      -4.876   1.381   0.360  1.00  0.00     0.028 C 
BRANCH  20  21
ATOM     21  C   UNL     1      -6.175   2.174   0.524  1.00  0.00     0.061 C 
BRANCH  21  22
ATOM     22  C   UNL     1      -7.348   1.228   0.493  1.00  0.00     0.083 A 
ATOM     23  N   UNL     1      -8.010   0.866  -0.570  1.00  0.00    -0.170 NA
ATOM     24  C   UNL     1      -7.924   0.586   1.614  1.00  0.00     0.117 A 
ATOM     25  N   UNL     1      -9.026  -0.021  -0.200  1.00  0.00    -0.216 N 
ATOM     26  C   UNL     1      -8.977  -0.193   1.140  1.00  0.00     0.145 A 
BRANCH  24  27
ATOM     27  C   UNL     1      -7.504   0.712   2.977  1.00  0.00     0.105 C 
ATOM     28  N   UNL     1      -7.171   0.811   4.058  1.00  0.00    -0.192 NA
ENDBRANCH  24  27
BRANCH  25  29
ATOM     29  C   UNL     1      -9.943  -0.627  -1.071  1.00  0.00     0.067 A 
ATOM     30  C   UNL     1     -10.408   0.065  -2.181  1.00  0.00     0.031 A 
ATOM     31  C   UNL     1     -10.382  -1.921  -0.827  1.00  0.00     0.031 A 
ATOM     32  C   UNL     1     -11.311  -0.534  -3.038  1.00  0.00     0.041 A 
ATOM     33  C   UNL     1     -11.289  -2.514  -1.684  1.00  0.00     0.041 A 
ATOM     34  C   UNL     1     -11.752  -1.823  -2.791  1.00  0.00     0.123 A 
ATOM     35  F   UNL     1     -12.634  -2.407  -3.631  1.00  0.00    -0.207 F 
ENDBRANCH  25  29
BRANCH  26  36
ATOM     36  N   UNL     1      -9.815  -0.989   1.897  1.00  0.00    -0.382 N 
ATOM     37  H   UNL     1      -9.624  -0.993   2.910  1.00  0.00     0.158 HD
ATOM     38  H   UNL     1     -10.582  -1.546   1.495  1.00  0.00     0.158 HD
ENDBRANCH  26  36
ENDBRANCH  21  22
ENDBRANCH  20  21
ENDBRANCH   1  20
TORSDOF 10
