REMARK SMILES O=C(NC[C@@H]1CCCO1)c1cccc2c1N[C@@H](c1cc(Br)ccc1O)[C@H]1CC=C[C@H]21
REMARK SMILES IDX 12 1 13 2 14 3 15 4 10 5 11 6 16 7 17 8 26 9 30 10 29 11
REMARK SMILES IDX 28 12 27 13 2 15 1 16 3 17 4 19 5 20 9 21 6 22 8 23 7 24
REMARK SMILES IDX 18 25 24 26 19 27 23 28 20 29 22 30 21 31 25 32
REMARK H PARENT 16 14 3 18 25 33
REMARK Flexibility Score: inf
ROOT
ATOM      1  C   UNL     1       2.894  -2.014   2.257  1.00  0.00     0.001 A 
ATOM      2  C   UNL     1       2.926  -0.631   2.185  1.00  0.00     0.006 A 
ATOM      3  C   UNL     1       1.980   0.062   1.462  1.00  0.00    -0.017 A 
ATOM      4  C   UNL     1       0.975  -0.621   0.770  1.00  0.00     0.051 A 
ATOM      5  C   UNL     1       0.947  -2.028   0.853  1.00  0.00     0.063 A 
ATOM      6  C   UNL     1       1.906  -2.712   1.597  1.00  0.00     0.016 A 
ATOM      7  N   UNL     1       0.002  -0.004   0.002  1.00  0.00    -0.377 N 
ATOM      8  C   UNL     1      -0.018   1.468   0.010  1.00  0.00     0.117 C 
ATOM      9  C   UNL     1       1.423   1.931  -0.001  1.00  0.00     0.031 C 
ATOM     10  C   UNL     1       1.974   1.540   1.406  1.00  0.00     0.049 C 
ATOM     11  C   UNL     1       3.212   2.350   1.518  1.00  0.00    -0.023 C 
ATOM     12  C   UNL     1       3.062   3.452   0.789  1.00  0.00    -0.030 C 
ATOM     13  C   UNL     1       1.699   3.436   0.094  1.00  0.00     0.034 C 
ATOM     14  H   UNL     1      -0.676  -0.550  -0.549  1.00  0.00     0.161 HD
ENDROOT
BRANCH   5  15
ATOM     15  C   UNL     1      -0.106  -2.782   0.147  1.00  0.00     0.253 C 
ATOM     16  O   UNL     1      -0.946  -2.190  -0.503  1.00  0.00    -0.269 OA
ATOM     17  N   UNL     1      -0.138  -4.127   0.223  1.00  0.00    -0.349 N 
ATOM     18  H   UNL     1       0.574  -4.629   0.774  1.00  0.00     0.163 HD
BRANCH  17  19
ATOM     19  C   UNL     1      -1.184  -4.876  -0.478  1.00  0.00     0.148 C 
BRANCH  19  20
ATOM     20  C   UNL     1      -0.992  -6.373  -0.230  1.00  0.00     0.137 C 
ATOM     21  O   UNL     1      -1.222  -6.670   1.153  1.00  0.00    -0.376 OA
ATOM     22  C   UNL     1      -2.019  -7.177  -1.056  1.00  0.00     0.036 C 
ATOM     23  C   UNL     1      -2.337  -7.567   1.283  1.00  0.00     0.160 C 
ATOM     24  C   UNL     1      -2.418  -8.311  -0.073  1.00  0.00     0.031 C 
ENDBRANCH  19  20
ENDBRANCH  17  19
ENDBRANCH   5  15
BRANCH   8  25
ATOM     25  C   UNL     1      -0.708   1.965   1.254  1.00  0.00     0.017 A 
ATOM     26  C   UNL     1      -1.301   3.219   1.264  1.00  0.00     0.120 A 
ATOM     27  C   UNL     1      -0.747   1.175   2.386  1.00  0.00     0.025 A 
ATOM     28  C   UNL     1      -1.940   3.673   2.409  1.00  0.00     0.047 A 
ATOM     29  C   UNL     1      -1.380   1.631   3.528  1.00  0.00     0.018 A 
ATOM     30  C   UNL     1      -1.977   2.879   3.538  1.00  0.00     0.019 A 
ATOM     31  Br  UNL     1      -1.432   0.547   5.077  1.00  0.00    -0.051 Br
BRANCH  26  32
ATOM     32  O   UNL     1      -1.259   4.001   0.153  1.00  0.00    -0.508 OA
ATOM     33  H   UNL     1      -1.664   3.448  -0.562  1.00  0.00     0.293 HD
ENDBRANCH  26  32
ENDBRANCH   8  25
TORSDOF 5
