REMARK SMILES O=C(Cc1ccccc1)N[C@@H]1c2ccccc2C2(CC[NH+](Cc3ccccc3Cl)CC2)[C@H]1O
REMARK SMILES IDX 11 1 12 2 13 3 14 4 15 5 16 6 17 7 18 8 32 9 19 10 20 11
REMARK SMILES IDX 30 12 31 13 21 14 10 16 2 17 1 18 3 20 4 21 7 22 8 23 6 24
REMARK SMILES IDX 9 25 5 26 33 27 22 29 23 30 28 31 24 32 27 33 29 34 25 35
REMARK SMILES IDX 26 36
REMARK H PARENT 21 15 10 19 33 28
REMARK Flexibility Score: inf
ROOT
ATOM      1  C   UNL     1      -2.449   1.117   0.020  1.00  0.00     0.142 C 
ATOM      2  C   UNL     1      -2.862   0.780  -1.397  1.00  0.00    -0.019 A 
ATOM      3  C   UNL     1      -2.114   0.302  -2.460  1.00  0.00     0.006 A 
ATOM      4  C   UNL     1      -2.714   0.063  -3.681  1.00  0.00     0.000 A 
ATOM      5  C   UNL     1      -4.065   0.303  -3.844  1.00  0.00     0.000 A 
ATOM      6  C   UNL     1      -4.814   0.780  -2.786  1.00  0.00     0.005 A 
ATOM      7  C   UNL     1      -4.215   1.020  -1.560  1.00  0.00    -0.033 A 
ATOM      8  C   UNL     1      -4.797   1.533  -0.265  1.00  0.00     0.035 C 
ATOM      9  C   UNL     1      -3.593   1.992   0.578  1.00  0.00     0.152 C 
ATOM     10  C   UNL     1      -5.546   0.417   0.460  1.00  0.00     0.076 C 
ATOM     11  C   UNL     1      -6.147   0.971   1.755  1.00  0.00     0.263 C 
ATOM     12  C   UNL     1      -6.327   3.191   0.798  1.00  0.00     0.263 C 
ATOM     13  C   UNL     1      -5.730   2.712  -0.529  1.00  0.00     0.076 C 
ATOM     14  N   UNL     1      -7.072   2.075   1.419  1.00  0.00    -0.331 N 
ATOM     15  H   UNL     1      -7.774   1.730   0.749  1.00  0.00     0.348 HD
ENDROOT
BRANCH   1  16
ATOM     16  N   UNL     1      -1.191   1.867   0.018  1.00  0.00    -0.346 N 
ATOM     17  C   UNL     1      -0.014   1.209   0.009  1.00  0.00     0.224 C 
ATOM     18  O   UNL     1       0.002  -0.004   0.002  1.00  0.00    -0.275 OA
ATOM     19  H   UNL     1      -1.205   2.897   0.023  1.00  0.00     0.164 HD
BRANCH  17  20
ATOM     20  C   UNL     1       1.280   1.980   0.001  1.00  0.00     0.135 C 
BRANCH  20  21
ATOM     21  C   UNL     1       2.439   1.016  -0.016  1.00  0.00    -0.039 A 
ATOM     22  C   UNL     1       4.565  -0.751  -0.046  1.00  0.00     0.000 A 
ATOM     23  C   UNL     1       4.045  -0.315   1.159  1.00  0.00     0.000 A 
ATOM     24  C   UNL     1       4.021  -0.303  -1.235  1.00  0.00     0.000 A 
ATOM     25  C   UNL     1       2.985   0.572   1.174  1.00  0.00     0.004 A 
ATOM     26  C   UNL     1       2.959   0.581  -1.220  1.00  0.00     0.004 A 
ENDBRANCH  20  21
ENDBRANCH  17  20
ENDBRANCH   1  16
BRANCH   9  27
ATOM     27  O   UNL     1      -3.810   1.722   1.964  1.00  0.00    -0.390 OA
ATOM     28  H   UNL     1      -2.976   1.911   2.462  1.00  0.00     0.211 HD
ENDBRANCH   9  27
BRANCH  14  29
ATOM     29  C   UNL     1      -7.760   2.546   2.638  1.00  0.00     0.300 C 
BRANCH  29  30
ATOM     30  C   UNL     1      -8.283   1.355   3.400  1.00  0.00     0.025 A 
ATOM     31  C   UNL     1      -9.392   0.670   2.938  1.00  0.00     0.049 A 
ATOM     32  C   UNL     1      -7.657   0.951   4.565  1.00  0.00     0.011 A 
ATOM     33  C   UNL     1      -9.868  -0.426   3.635  1.00  0.00     0.021 A 
ATOM     34  Cl  UNL     1     -10.183   1.182   1.479  1.00  0.00    -0.084 Cl
ATOM     35  C   UNL     1      -8.136  -0.141   5.263  1.00  0.00     0.001 A 
ATOM     36  C   UNL     1      -9.241  -0.830   4.799  1.00  0.00     0.002 A 
ENDBRANCH  29  30
ENDBRANCH  14  29
TORSDOF 6
