REMARK SMILES Cc1ccc(N2N=C(C(=O)Nc3nc(C)c(-c4nccn4C(F)F)s3)CCC2=O)cc1Cl
REMARK SMILES IDX 12 1 13 2 14 3 16 4 25 5 15 6 11 7 9 8 10 9 8 11 6 12 7 13
REMARK SMILES IDX 28 14 29 15 27 16 26 17 5 18 1 19 2 20 31 21 3 22 30 23
REMARK SMILES IDX 32 24 4 25 17 26 21 27 18 28 20 29 19 30 22 31 23 32 24 33
REMARK H PARENT 11 10
REMARK Flexibility Score: inf
ROOT
ATOM      1  C   UNL     1       1.881  -4.434  -0.630  1.00  0.00     0.190 A 
ATOM      2  N   UNL     1       2.925  -5.088  -0.153  1.00  0.00    -0.225 NA
ATOM      3  C   UNL     1       2.862  -6.370   0.122  1.00  0.00     0.062 A 
ATOM      4  C   UNL     1       1.674  -7.022  -0.101  1.00  0.00     0.095 A 
ATOM      5  S   UNL     1       0.671  -5.677  -0.716  1.00  0.00    -0.093 S 
ATOM      6  C   UNL     1       4.060  -7.106   0.666  1.00  0.00     0.068 C 
ENDROOT
BRANCH   1   7
ATOM      7  N   UNL     1       1.776  -3.095  -0.970  1.00  0.00    -0.297 N 
ATOM      8  C   UNL     1       2.838  -2.277  -0.825  1.00  0.00     0.273 C 
ATOM      9  O   UNL     1       3.889  -2.716  -0.396  1.00  0.00    -0.267 OA
ATOM     10  H   UNL     1       0.886  -2.724  -1.334  1.00  0.00     0.172 HD
BRANCH   8  11
ATOM     11  C   UNL     1       2.727  -0.860  -1.185  1.00  0.00     0.127 C 
ATOM     12  N   UNL     1       1.460   0.943  -1.997  1.00  0.00    -0.200 N 
ATOM     13  N   UNL     1       1.602  -0.401  -1.637  1.00  0.00    -0.164 NA
ATOM     14  C   UNL     1       2.547   1.702  -2.243  1.00  0.00     0.247 C 
ATOM     15  O   UNL     1       2.417   2.866  -2.555  1.00  0.00    -0.273 OA
ATOM     16  C   UNL     1       3.923   1.098  -2.128  1.00  0.00     0.109 C 
ATOM     17  C   UNL     1       3.920   0.043  -1.019  1.00  0.00     0.074 C 
BRANCH  12  18
ATOM     18  C   UNL     1       0.182   1.505  -2.097  1.00  0.00     0.070 A 
ATOM     19  C   UNL     1      -3.721   3.223  -2.401  1.00  0.00     0.046 C 
ATOM     20  C   UNL     1      -2.345   2.617  -2.294  1.00  0.00    -0.032 A 
ATOM     21  C   UNL     1      -2.071   1.411  -2.914  1.00  0.00     0.046 A 
ATOM     22  C   UNL     1      -1.360   3.265  -1.571  1.00  0.00     0.007 A 
ATOM     23  C   UNL     1      -0.810   0.853  -2.818  1.00  0.00     0.049 A 
ATOM     24  Cl  UNL     1      -3.313   0.597  -3.814  1.00  0.00    -0.084 Cl
ATOM     25  C   UNL     1      -0.096   2.716  -1.476  1.00  0.00     0.029 A 
ENDBRANCH  12  18
ENDBRANCH   8  11
ENDBRANCH   1   7
BRANCH   4  26
ATOM     26  C   UNL     1       1.323  -8.434   0.113  1.00  0.00     0.156 A 
ATOM     27  N   UNL     1       0.198  -8.893   0.737  1.00  0.00    -0.273 N 
ATOM     28  N   UNL     1       2.041  -9.473  -0.260  1.00  0.00    -0.236 NA
ATOM     29  C   UNL     1       0.261 -10.264   0.719  1.00  0.00     0.113 A 
ATOM     30  C   UNL     1       1.411 -10.598   0.101  1.00  0.00     0.131 A 
BRANCH  27  31
ATOM     31  C   UNL     1      -0.875  -8.078   1.314  1.00  0.00     0.450 C 
ATOM     32  F   UNL     1      -1.553  -8.820   2.286  1.00  0.00    -0.185 F 
ATOM     33  F   UNL     1      -0.326  -6.933   1.900  1.00  0.00    -0.185 F 
ENDBRANCH  27  31
ENDBRANCH   4  26
TORSDOF 5
