REMARK SMILES Cc1sc2[nH]c(CS[C@H](C)C(=O)Nc3nc(CN4CCC[C@@H](C)C4)cs3)nc(=O)c2c1C
REMARK SMILES IDX 9 1 10 2 8 3 7 4 6 5 32 6 31 7 30 8 2 9 4 10 28 11 3 12 1 13
REMARK SMILES IDX 5 14 29 15 27 16 11 18 12 19 13 20 14 22 26 23 15 24 25 25
REMARK SMILES IDX 16 26 17 27 18 28 24 29 19 30 22 31 20 32 21 33 23 34
REMARK H PARENT 5 17 13 21
REMARK Flexibility Score: inf
ROOT
ATOM      1  C   UNL     1       2.242  11.100  -2.047  1.00  0.00     0.133 C 
ATOM      2  C   UNL     1       0.771  11.303  -2.418  1.00  0.00     0.030 C 
ENDROOT
BRANCH   1   3
ATOM      3  S   UNL     1       2.909  12.638  -1.354  1.00  0.00    -0.141 SA
BRANCH   3   4
ATOM      4  C   UNL     1       2.842  13.808  -2.739  1.00  0.00     0.145 C 
BRANCH   4   5
ATOM      5  C   UNL     1       3.375  15.145  -2.292  1.00  0.00     0.121 A 
ATOM      6  C   UNL     1       5.032  20.050  -1.648  1.00  0.00     0.046 C 
ATOM      7  C   UNL     1       4.889  18.776  -0.856  1.00  0.00    -0.022 A 
ATOM      8  C   UNL     1       4.347  17.582  -1.477  1.00  0.00     0.080 A 
ATOM      9  C   UNL     1       5.263  18.732   0.433  1.00  0.00     0.007 A 
ATOM     10  C   UNL     1       4.264  16.459  -0.635  1.00  0.00     0.107 A 
ATOM     11  C   UNL     1       3.885  17.386  -2.819  1.00  0.00     0.281 A 
ATOM     12  S   UNL     1       4.905  17.052   0.910  1.00  0.00    -0.122 S 
ATOM     13  C   UNL     1       5.846  19.838   1.275  1.00  0.00     0.057 C 
ATOM     14  N   UNL     1       3.788  15.293  -1.062  1.00  0.00    -0.334 N 
ATOM     15  O   UNL     1       3.916  18.300  -3.625  1.00  0.00    -0.267 OA
ATOM     16  N   UNL     1       3.422  16.174  -3.178  1.00  0.00    -0.195 NA
ATOM     17  H   UNL     1       3.745  14.494  -0.413  1.00  0.00     0.169 HD
ENDBRANCH   4   5
ENDBRANCH   3   4
ENDBRANCH   1   3
BRANCH   1  18
ATOM     18  C   UNL     1       2.354   9.998  -1.025  1.00  0.00     0.239 C 
ATOM     19  O   UNL     1       2.393  10.269   0.157  1.00  0.00    -0.273 OA
ATOM     20  N   UNL     1       2.411   8.712  -1.424  1.00  0.00    -0.301 N 
ATOM     21  H   UNL     1       2.378   8.482  -2.428  1.00  0.00     0.172 HD
BRANCH  20  22
ATOM     22  C   UNL     1       2.515   7.696  -0.481  1.00  0.00     0.189 A 
ATOM     23  S   UNL     1       2.589   7.817   1.249  1.00  0.00    -0.105 S 
ATOM     24  N   UNL     1       2.588   6.393  -0.672  1.00  0.00    -0.224 NA
ATOM     25  C   UNL     1       2.708   6.069   1.600  1.00  0.00     0.093 A 
ATOM     26  C   UNL     1       2.679   5.558   0.344  1.00  0.00     0.068 A 
BRANCH  26  27
ATOM     27  C   UNL     1       2.755   4.070   0.115  1.00  0.00     0.141 C 
BRANCH  27  28
ATOM     28  N   UNL     1       1.397   3.525  -0.014  1.00  0.00    -0.297 NA
ATOM     29  C   UNL     1       1.417   2.056  -0.000  1.00  0.00     0.088 C 
ATOM     30  C   UNL     1       0.737   4.036  -1.221  1.00  0.00     0.085 C 
ATOM     31  C   UNL     1      -0.019   1.526   0.010  1.00  0.00    -0.000 C 
ATOM     32  C   UNL     1      -0.719   3.565  -1.247  1.00  0.00     0.016 C 
ATOM     33  C   UNL     1      -0.755   2.034  -1.232  1.00  0.00     0.006 C 
ATOM     34  C   UNL     1       0.002  -0.004   0.002  1.00  0.00     0.009 C 
ENDBRANCH  27  28
ENDBRANCH  26  27
ENDBRANCH  20  22
ENDBRANCH   1  18
TORSDOF 7
