REMARK SMILES Cc1ccc([C@H]2CC(c3cccs3)=NN2C(=O)Cn2c(-c3nnco3)cc3ccccc32)cc1
REMARK SMILES IDX 18 1 16 2 17 3 15 4 6 5 7 6 14 7 8 8 5 9 1 10 2 11 34 12
REMARK SMILES IDX 3 13 33 14 4 15 9 16 13 17 10 18 12 19 11 20 19 21 20 22
REMARK SMILES IDX 32 23 26 24 27 25 31 26 28 27 30 28 29 29 21 30 25 31 22 32
REMARK SMILES IDX 24 33 23 34
REMARK H PARENT
REMARK Flexibility Score: inf
ROOT
ATOM      1  C   UNL     1      -1.286   2.362   3.568  1.00  0.00     0.225 C 
ENDROOT
BRANCH   1   2
ATOM      2  C   UNL     1      -0.433   1.787   2.467  1.00  0.00     0.263 C 
ATOM      3  O   UNL     1       0.548   1.128   2.741  1.00  0.00    -0.271 OA
BRANCH   2   4
ATOM      4  N   UNL     1      -0.761   2.004   1.178  1.00  0.00    -0.224 N 
ATOM      5  C   UNL     1      -0.018   1.503   0.010  1.00  0.00     0.147 C 
ATOM      6  C   UNL     1      -0.819   2.041  -1.192  1.00  0.00     0.092 C 
ATOM      7  N   UNL     1      -1.859   2.740   0.728  1.00  0.00    -0.173 NA
ATOM      8  C   UNL     1      -1.959   2.806  -0.558  1.00  0.00     0.081 C 
BRANCH   5   9
ATOM      9  C   UNL     1       0.002  -0.004   0.002  1.00  0.00    -0.023 A 
ATOM     10  C   UNL     1       0.061  -4.275  -0.020  1.00  0.00     0.044 C 
ATOM     11  C   UNL     1       0.040  -2.768  -0.012  1.00  0.00    -0.051 A 
ATOM     12  C   UNL     1      -1.085  -2.095   0.425  1.00  0.00     0.004 A 
ATOM     13  C   UNL     1       1.146  -2.060  -0.443  1.00  0.00     0.004 A 
ATOM     14  C   UNL     1      -1.102  -0.713   0.437  1.00  0.00     0.006 A 
ATOM     15  C   UNL     1       1.127  -0.678  -0.435  1.00  0.00     0.006 A 
ENDBRANCH   5   9
BRANCH   8  16
ATOM     16  C   UNL     1      -3.013   3.516  -1.290  1.00  0.00     0.050 A 
ATOM     17  S   UNL     1      -3.248   3.674  -3.053  1.00  0.00    -0.142 S 
ATOM     18  C   UNL     1      -4.089   4.232  -0.795  1.00  0.00     0.022 A 
ATOM     19  C   UNL     1      -4.729   4.670  -3.023  1.00  0.00     0.065 A 
ATOM     20  C   UNL     1      -4.952   4.819  -1.691  1.00  0.00     0.012 A 
ENDBRANCH   8  16
ENDBRANCH   2   4
ENDBRANCH   1   2
BRANCH   1  21
ATOM     21  N   UNL     1      -0.724   1.987   4.868  1.00  0.00    -0.327 N 
ATOM     22  C   UNL     1       0.208   2.720   5.569  1.00  0.00     0.108 A 
ATOM     23  C   UNL     1      -1.052   0.852   5.575  1.00  0.00     0.049 A 
ATOM     24  C   UNL     1       0.506   2.081   6.731  1.00  0.00     0.042 A 
ATOM     25  C   UNL     1      -0.296   0.860   6.763  1.00  0.00     0.000 A 
ATOM     26  C   UNL     1      -1.924  -0.204   5.330  1.00  0.00     0.027 A 
ATOM     27  C   UNL     1      -0.427  -0.188   7.680  1.00  0.00     0.010 A 
ATOM     28  C   UNL     1      -2.041  -1.223   6.250  1.00  0.00     0.002 A 
ATOM     29  C   UNL     1      -1.296  -1.210   7.422  1.00  0.00     0.001 A 
BRANCH  22  30
ATOM     30  C   UNL     1       0.792   3.998   5.128  1.00  0.00     0.264 A 
ATOM     31  O   UNL     1       1.704   4.734   5.796  1.00  0.00    -0.422 OA
ATOM     32  N   UNL     1       0.524   4.632   4.008  1.00  0.00    -0.106 NA
ATOM     33  C   UNL     1       1.952   5.812   5.032  1.00  0.00     0.333 A 
ATOM     34  N   UNL     1       1.216   5.716   3.960  1.00  0.00    -0.116 NA
ENDBRANCH  22  30
ENDBRANCH   1  21
TORSDOF 6
