REMARK SMILES N#CC1=C(N)C(C#N)(C#N)[C@H](c2ccc(Cl)cc2)[C@@H]2C[N@@H+](CCc3ccccc3)CC=C12
REMARK SMILES IDX 22 1 23 2 24 3 27 4 28 5 26 6 29 7 25 8 21 9 20 10 30 11
REMARK SMILES IDX 19 13 31 14 32 15 11 16 3 17 6 18 4 19 12 20 18 21 13 22
REMARK SMILES IDX 17 23 14 24 15 25 16 26 2 27 1 28 7 29 8 30 9 31 10 32 5 33
REMARK H PARENT 21 12 5 34 5 35
REMARK Flexibility Score: inf
ROOT
ATOM      1  C   UNL     1      -7.033   3.948   1.279  1.00  0.00     0.267 C 
ENDROOT
BRANCH   1   2
ATOM      2  C   UNL     1      -7.786   4.234  -0.021  1.00  0.00     0.097 C 
BRANCH   2   3
ATOM      3  C   UNL     1      -9.030   5.029   0.282  1.00  0.00    -0.042 A 
ATOM      4  C   UNL     1     -11.311   6.488   0.839  1.00  0.00     0.000 A 
ATOM      5  C   UNL     1     -11.358   5.107   0.834  1.00  0.00     0.000 A 
ATOM      6  C   UNL     1     -10.123   7.140   0.565  1.00  0.00     0.000 A 
ATOM      7  C   UNL     1     -10.219   4.377   0.551  1.00  0.00     0.004 A 
ATOM      8  C   UNL     1      -8.982   6.410   0.287  1.00  0.00     0.004 A 
ENDBRANCH   2   3
ENDBRANCH   1   2
BRANCH   1   9
ATOM      9  N   UNL     1      -5.821   3.173   0.983  1.00  0.00    -0.331 N 
ATOM     10  C   UNL     1      -4.969   3.877   0.021  1.00  0.00     0.271 C 
ATOM     11  C   UNL     1      -6.162   1.832   0.475  1.00  0.00     0.291 C 
ATOM     12  H   UNL     1      -5.298   3.064   1.864  1.00  0.00     0.348 HD
ATOM     13  C   UNL     1      -3.683   3.131  -0.252  1.00  0.00     0.086 C 
ATOM     14  C   UNL     1      -4.879   1.046   0.364  1.00  0.00     0.039 C 
ATOM     15  C   UNL     1      -3.754   1.662   0.055  1.00  0.00    -0.017 C 
ATOM     16  C   UNL     1      -2.500   3.721   0.516  1.00  0.00     0.073 C 
ATOM     17  C   UNL     1      -2.480   0.901   0.003  1.00  0.00     0.077 C 
ATOM     18  C   UNL     1      -1.210   3.075   0.016  1.00  0.00     0.191 C 
ATOM     19  C   UNL     1      -1.304   1.579  -0.005  1.00  0.00     0.062 C 
BRANCH  16  20
ATOM     20  C   UNL     1      -2.663   3.439   1.988  1.00  0.00    -0.041 A 
ATOM     21  C   UNL     1      -2.181   2.258   2.522  1.00  0.00     0.005 A 
ATOM     22  C   UNL     1      -3.288   4.363   2.804  1.00  0.00     0.005 A 
ATOM     23  C   UNL     1      -2.330   1.998   3.871  1.00  0.00     0.021 A 
ATOM     24  C   UNL     1      -3.442   4.102   4.152  1.00  0.00     0.021 A 
ATOM     25  C   UNL     1      -2.961   2.921   4.687  1.00  0.00     0.041 A 
ATOM     26  Cl  UNL     1      -3.147   2.596   6.383  1.00  0.00    -0.084 Cl
ENDBRANCH  16  20
BRANCH  17  27
ATOM     27  C   UNL     1      -2.493  -0.530  -0.038  1.00  0.00     0.101 C 
ATOM     28  N   UNL     1      -2.502  -1.666  -0.071  1.00  0.00    -0.192 NA
ENDBRANCH  17  27
BRANCH  18  29
ATOM     29  C   UNL     1      -0.099   3.472   0.896  1.00  0.00     0.092 C 
ATOM     30  N   UNL     1       0.758   3.780   1.576  1.00  0.00    -0.196 NA
ENDBRANCH  18  29
BRANCH  18  31
ATOM     31  C   UNL     1      -0.935   3.557  -1.347  1.00  0.00     0.092 C 
ATOM     32  N   UNL     1      -0.723   3.929  -2.399  1.00  0.00    -0.196 NA
ENDBRANCH  18  31
BRANCH  19  33
ATOM     33  N   UNL     1      -0.143   0.859  -0.028  1.00  0.00    -0.399 N 
ATOM     34  H   UNL     1       0.776   1.323  -0.031  1.00  0.00     0.156 HD
ATOM     35  H   UNL     1      -0.194  -0.170  -0.042  1.00  0.00     0.156 HD
ENDBRANCH  19  33
ENDBRANCH   1   9
TORSDOF 8
