REMARK SMILES CCOC(=O)c1cc(-c2ccccc2)sc1NC(=O)[C@@H](C)Sc1nnc(-c2ccoc2C)n1C
REMARK SMILES IDX 17 1 18 2 19 3 16 5 6 6 7 7 15 8 8 9 4 10 5 11 3 12 2 13
REMARK SMILES IDX 1 14 9 15 14 16 10 17 13 18 11 19 12 20 20 21 21 22 22 23
REMARK SMILES IDX 23 24 33 25 24 26 26 27 34 28 25 29 27 30 31 31 28 32 30 33
REMARK SMILES IDX 32 34 29 35
REMARK H PARENT 17 4
REMARK Flexibility Score: inf
ROOT
ATOM      1  N   UNL     1       1.584  -1.952  -0.018  1.00  0.00    -0.316 N 
ATOM      2  C   UNL     1       2.848  -2.408  -0.124  1.00  0.00     0.238 C 
ATOM      3  O   UNL     1       3.766  -1.627  -0.259  1.00  0.00    -0.273 OA
ATOM      4  H   UNL     1       0.805  -2.615   0.097  1.00  0.00     0.170 HD
ENDROOT
BRANCH   1   5
ATOM      5  C   UNL     1       1.334  -0.591  -0.062  1.00  0.00     0.110 A 
ATOM      6  C   UNL     1       0.111   0.071   0.030  1.00  0.00     0.095 A 
ATOM      7  C   UNL     1       0.122   1.464  -0.043  1.00  0.00     0.038 A 
ATOM      8  S   UNL     1       2.465   0.710  -0.245  1.00  0.00    -0.117 S 
ATOM      9  C   UNL     1       1.325   2.080  -0.198  1.00  0.00     0.037 A 
BRANCH   6  10
ATOM     10  C   UNL     1      -1.142  -0.670   0.197  1.00  0.00     0.341 C 
ATOM     11  O   UNL     1      -1.127  -1.885   0.258  1.00  0.00    -0.246 OA
BRANCH  10  12
ATOM     12  O   UNL     1      -2.313  -0.005   0.284  1.00  0.00    -0.462 OA
BRANCH  12  13
ATOM     13  C   UNL     1      -3.514  -0.804   0.448  1.00  0.00     0.230 C 
ATOM     14  C   UNL     1      -4.733   0.117   0.527  1.00  0.00     0.049 C 
ENDBRANCH  12  13
ENDBRANCH  10  12
ENDBRANCH   6  10
BRANCH   9  15
ATOM     15  C   UNL     1       1.615   3.525  -0.303  1.00  0.00    -0.008 A 
ATOM     16  C   UNL     1       2.930   3.967  -0.461  1.00  0.00     0.009 A 
ATOM     17  C   UNL     1       0.575   4.455  -0.249  1.00  0.00     0.009 A 
ATOM     18  C   UNL     1       3.194   5.317  -0.558  1.00  0.00     0.001 A 
ATOM     19  C   UNL     1       0.854   5.803  -0.342  1.00  0.00     0.001 A 
ATOM     20  C   UNL     1       2.159   6.234  -0.499  1.00  0.00     0.000 A 
ENDBRANCH   9  15
ENDBRANCH   1   5
BRANCH   2  21
ATOM     21  C   UNL     1       3.120  -3.890  -0.076  1.00  0.00     0.141 C 
ATOM     22  C   UNL     1       2.942  -4.487  -1.474  1.00  0.00     0.030 C 
BRANCH  21  23
ATOM     23  S   UNL     1       4.816  -4.173   0.489  1.00  0.00    -0.073 SA
BRANCH  23  24
ATOM     24  C   UNL     1       4.813  -5.932   0.596  1.00  0.00     0.191 A 
ATOM     25  N   UNL     1       5.861  -6.723   0.977  1.00  0.00    -0.305 N 
ATOM     26  N   UNL     1       3.806  -6.728   0.318  1.00  0.00    -0.123 NA
ATOM     27  C   UNL     1       5.393  -8.015   0.911  1.00  0.00     0.167 A 
ATOM     28  C   UNL     1       7.201  -6.287   1.376  1.00  0.00     0.154 C 
ATOM     29  N   UNL     1       4.147  -7.953   0.503  1.00  0.00    -0.129 NA
BRANCH  27  30
ATOM     30  C   UNL     1       6.153  -9.243   1.232  1.00  0.00     0.060 A 
ATOM     31  C   UNL     1       6.212 -10.387   0.498  1.00  0.00     0.111 A 
ATOM     32  C   UNL     1       6.994  -9.482   2.411  1.00  0.00     0.054 A 
ATOM     33  O   UNL     1       7.010 -11.257   1.135  1.00  0.00    -0.469 OA
ATOM     34  C   UNL     1       5.504 -10.634  -0.809  1.00  0.00     0.088 C 
ATOM     35  C   UNL     1       7.478 -10.728   2.275  1.00  0.00     0.196 A 
ENDBRANCH  27  30
ENDBRANCH  23  24
ENDBRANCH  21  23
ENDBRANCH   2  21
TORSDOF 9
