REMARK SMILES C=CCn1c(Cc2csc(NC(=O)c3sc4nc(C(F)(F)F)ccc4c3C)n2)n[nH]c1=S
REMARK SMILES IDX 10 1 28 2 7 3 8 4 9 5 11 6 12 7 13 8 14 10 27 11 26 12 25 13
REMARK SMILES IDX 15 14 16 15 24 16 17 17 23 18 18 19 19 20 20 21 21 22 22 23
REMARK SMILES IDX 6 24 5 25 4 26 29 27 31 28 30 29 32 30 3 32 2 33 1 34
REMARK H PARENT 11 9 30 31
REMARK Flexibility Score: inf
ROOT
ATOM      1  C   UNL     1      -1.223   1.644   0.017  1.00  0.00     0.189 A 
ATOM      2  N   UNL     1      -2.447   1.153   0.015  1.00  0.00    -0.225 NA
ATOM      3  C   UNL     1      -3.501   1.945   0.030  1.00  0.00     0.061 A 
ATOM      4  C   UNL     1      -3.301   3.286   0.035  1.00  0.00     0.093 A 
ATOM      5  S   UNL     1      -1.516   3.355   0.027  1.00  0.00    -0.105 S 
ENDROOT
BRANCH   1   6
ATOM      6  N   UNL     1      -0.011   0.966   0.007  1.00  0.00    -0.297 N 
ATOM      7  C   UNL     1       1.147   1.655   0.000  1.00  0.00     0.267 C 
ATOM      8  O   UNL     1       1.130   2.872   0.007  1.00  0.00    -0.268 OA
ATOM      9  H   UNL     1       0.003  -0.064   0.006  1.00  0.00     0.172 HD
BRANCH   7  10
ATOM     10  C   UNL     1       2.429   0.938  -0.016  1.00  0.00     0.098 A 
ATOM     11  C   UNL     1       3.892   2.946  -0.032  1.00  0.00     0.047 C 
ATOM     12  C   UNL     1       3.687   1.453  -0.031  1.00  0.00    -0.018 A 
ATOM     13  C   UNL     1       4.796   0.590  -0.040  1.00  0.00     0.015 A 
ATOM     14  S   UNL     1       2.718  -0.822  -0.029  1.00  0.00    -0.110 S 
ATOM     15  C   UNL     1       4.494  -0.794  -0.045  1.00  0.00     0.124 A 
ATOM     16  C   UNL     1       6.176   0.924  -0.052  1.00  0.00     0.014 A 
ATOM     17  N   UNL     1       5.423  -1.722  -0.060  1.00  0.00    -0.232 NA
ATOM     18  C   UNL     1       7.101  -0.077  -0.066  1.00  0.00     0.034 A 
ATOM     19  C   UNL     1       6.705  -1.407  -0.070  1.00  0.00     0.146 A 
BRANCH  19  20
ATOM     20  C   UNL     1       7.744  -2.498  -0.087  1.00  0.00     0.433 C 
ATOM     21  F   UNL     1       8.078  -2.844   1.226  1.00  0.00    -0.165 F 
ATOM     22  F   UNL     1       7.231  -3.620  -0.748  1.00  0.00    -0.165 F 
ATOM     23  F   UNL     1       8.886  -2.045  -0.755  1.00  0.00    -0.165 F 
ENDBRANCH  19  20
ENDBRANCH   7  10
ENDBRANCH   1   6
BRANCH   3  24
ATOM     24  C   UNL     1      -4.896   1.374   0.033  1.00  0.00     0.134 C 
BRANCH  24  25
ATOM     25  C   UNL     1      -5.057   0.435  -1.135  1.00  0.00     0.137 A 
ATOM     26  N   UNL     1      -4.792  -0.912  -1.119  1.00  0.00    -0.300 N 
ATOM     27  N   UNL     1      -5.472   0.766  -2.315  1.00  0.00    -0.159 NA
ATOM     28  C   UNL     1      -5.055  -1.410  -2.344  1.00  0.00     0.195 A 
ATOM     29  N   UNL     1      -5.478  -0.386  -3.114  1.00  0.00    -0.252 N 
ATOM     30  S   UNL     1      -4.883  -3.042  -2.833  1.00  0.00    -0.039 S 
ATOM     31  H   UNL     1      -5.754  -0.440  -4.105  1.00  0.00     0.193 HD
BRANCH  26  32
ATOM     32  C   UNL     1      -4.307  -1.678   0.032  1.00  0.00     0.153 C 
BRANCH  32  33
ATOM     33  C   UNL     1      -5.481  -2.199   0.820  1.00  0.00    -0.013 C 
ATOM     34  C   UNL     1      -5.585  -3.480   1.070  1.00  0.00     0.006 C 
ENDBRANCH  32  33
ENDBRANCH  26  32
ENDBRANCH  24  25
ENDBRANCH   3  24
TORSDOF 7
