REMARK SMILES CC(C)(CNC(=O)Cn1c(S)nnc1-c1ccc(Cl)cc1)[N@@H+]1CCc2ccccc2C1
REMARK SMILES IDX 5 1 6 2 7 3 4 5 2 6 1 7 3 8 22 9 31 10 23 11 30 13 24 14
REMARK SMILES IDX 25 15 29 16 26 17 28 18 27 19 8 20 9 21 10 22 14 23 12 24
REMARK SMILES IDX 13 25 11 26 15 28 21 29 16 30 20 31 17 32 18 33 19 34
REMARK H PARENT 5 4 22 12 11 27
REMARK Flexibility Score: inf
ROOT
ATOM      1  N   UNL     1       4.335   4.559   2.347  1.00  0.00    -0.348 N 
ATOM      2  C   UNL     1       4.094   3.315   1.887  1.00  0.00     0.240 C 
ATOM      3  O   UNL     1       3.965   2.394   2.667  1.00  0.00    -0.273 OA
ATOM      4  H   UNL     1       4.444   5.340   1.685  1.00  0.00     0.163 HD
ENDROOT
BRANCH   1   5
ATOM      5  C   UNL     1       4.441   4.799   3.788  1.00  0.00     0.183 C 
BRANCH   5   6
ATOM      6  C   UNL     1       4.715   6.283   4.039  1.00  0.00     0.110 C 
ATOM      7  C   UNL     1       4.826   6.534   5.545  1.00  0.00     0.081 C 
ATOM      8  C   UNL     1       6.026   6.681   3.358  1.00  0.00     0.081 C 
BRANCH   6   9
ATOM      9  N   UNL     1       3.614   7.084   3.489  1.00  0.00    -0.325 N 
ATOM     10  C   UNL     1       2.329   6.680   4.069  1.00  0.00     0.299 C 
ATOM     11  C   UNL     1       3.844   8.521   3.712  1.00  0.00     0.267 C 
ATOM     12  H   UNL     1       3.581   6.914   2.474  1.00  0.00     0.348 HD
ATOM     13  C   UNL     1       1.223   7.573   3.572  1.00  0.00     0.010 A 
ATOM     14  C   UNL     1       2.886   9.310   2.820  1.00  0.00     0.097 C 
ATOM     15  C   UNL     1       1.480   8.797   2.994  1.00  0.00    -0.034 A 
ATOM     16  C   UNL     1      -0.088   7.138   3.708  1.00  0.00     0.010 A 
ATOM     17  C   UNL     1       0.428   9.588   2.556  1.00  0.00     0.004 A 
ATOM     18  C   UNL     1      -1.133   7.925   3.269  1.00  0.00     0.001 A 
ATOM     19  C   UNL     1      -0.875   9.154   2.692  1.00  0.00     0.000 A 
ENDBRANCH   6   9
ENDBRANCH   5   6
ENDBRANCH   1   5
BRANCH   2  20
ATOM     20  C   UNL     1       3.985   3.068   0.405  1.00  0.00     0.226 C 
BRANCH  20  21
ATOM     21  N   UNL     1       3.722   1.647   0.165  1.00  0.00    -0.293 N 
ATOM     22  C   UNL     1       4.654   0.678   0.060  1.00  0.00     0.188 A 
ATOM     23  C   UNL     1       2.477   1.069   0.011  1.00  0.00     0.165 A 
ATOM     24  N   UNL     1       4.010  -0.486  -0.165  1.00  0.00    -0.123 NA
ATOM     25  N   UNL     1       2.636  -0.209  -0.191  1.00  0.00    -0.129 NA
BRANCH  22  26
ATOM     26  S   UNL     1       6.348   0.888   0.182  1.00  0.00    -0.103 SA
ATOM     27  H   UNL     1       6.491   1.503   1.398  1.00  0.00     0.111 HD
ENDBRANCH  22  26
BRANCH  23  28
ATOM     28  C   UNL     1       1.182   1.782   0.060  1.00  0.00     0.019 A 
ATOM     29  C   UNL     1       1.084   3.014   0.707  1.00  0.00     0.013 A 
ATOM     30  C   UNL     1       0.053   1.225  -0.541  1.00  0.00     0.013 A 
ATOM     31  C   UNL     1      -0.126   3.674   0.749  1.00  0.00     0.021 A 
ATOM     32  C   UNL     1      -1.151   1.896  -0.497  1.00  0.00     0.021 A 
ATOM     33  C   UNL     1      -1.243   3.117   0.151  1.00  0.00     0.041 A 
ATOM     34  Cl  UNL     1      -2.763   3.954   0.207  1.00  0.00    -0.084 Cl
ENDBRANCH  23  28
ENDBRANCH  20  21
ENDBRANCH   2  20
TORSDOF 7
