REMARK SMILES O=C(NCc1ccc2c(c1)OCO2)[C@@H]([NH2+]Cc1ccc(C(=O)N2CCCCCC2)cc1)c1ccccc1
REMARK SMILES IDX 16 1 15 2 14 5 32 6 35 7 36 8 34 9 37 10 33 11 2 12 1 13
REMARK SMILES IDX 3 14 4 16 5 17 10 18 6 19 9 20 7 21 8 22 11 23 13 24 12 25
REMARK SMILES IDX 17 26 31 27 18 28 30 29 19 30 20 31 21 32 22 33 23 34 29 35
REMARK SMILES IDX 28 36 27 37 24 39 25 40 26 41
REMARK H PARENT 15 3 15 4 3 15
REMARK Flexibility Score: 90.00
ROOT
ATOM      1  C   UNL     1      10.417  -2.165   0.709  1.00  0.00     0.298 C 
ENDROOT
BRANCH   1   2
ATOM      2  N   UNL     1       9.546  -2.270   1.888  1.00  0.00    -0.328 N 
ATOM      3  H   UNL     1       9.707  -1.458   2.501  1.00  0.00     0.347 HD
ATOM      4  H   UNL     1       9.778  -3.129   2.406  1.00  0.00     0.347 HD
BRANCH   2   5
ATOM      5  C   UNL     1       8.131  -2.307   1.495  1.00  0.00     0.304 C 
BRANCH   5   6
ATOM      6  C   UNL     1       7.739  -3.723   1.160  1.00  0.00     0.019 A 
ATOM      7  C   UNL     1       7.021  -6.321   0.546  1.00  0.00     0.000 A 
ATOM      8  C   UNL     1       7.854  -6.070   1.621  1.00  0.00     0.001 A 
ATOM      9  C   UNL     1       6.548  -5.274  -0.222  1.00  0.00     0.001 A 
ATOM     10  C   UNL     1       8.216  -4.771   1.925  1.00  0.00     0.010 A 
ATOM     11  C   UNL     1       6.908  -3.974   0.085  1.00  0.00     0.010 A 
ENDBRANCH   5   6
BRANCH   5  12
ATOM     12  C   UNL     1       7.280  -1.806   2.633  1.00  0.00     0.283 C 
ATOM     13  O   UNL     1       7.801  -1.453   3.670  1.00  0.00    -0.268 OA
ATOM     14  N   UNL     1       5.941  -1.750   2.499  1.00  0.00    -0.347 N 
ATOM     15  H   UNL     1       5.498  -2.050   1.619  1.00  0.00     0.164 HD
BRANCH  14  16
ATOM     16  C   UNL     1       5.113  -1.263   3.606  1.00  0.00     0.152 C 
BRANCH  16  17
ATOM     17  C   UNL     1       3.662  -1.301   3.203  1.00  0.00    -0.025 A 
ATOM     18  C   UNL     1       3.086  -0.201   2.594  1.00  0.00     0.056 A 
ATOM     19  C   UNL     1       2.909  -2.435   3.444  1.00  0.00     0.009 A 
ATOM     20  C   UNL     1       1.752  -0.234   2.222  1.00  0.00     0.166 A 
ATOM     21  C   UNL     1       1.577  -2.475   3.075  1.00  0.00     0.051 A 
ATOM     22  C   UNL     1       0.993  -1.377   2.464  1.00  0.00     0.165 A 
ATOM     23  O   UNL     1       0.958   0.697   1.618  1.00  0.00    -0.454 OA
ATOM     24  O   UNL     1      -0.276  -1.161   2.011  1.00  0.00    -0.454 OA
ATOM     25  C   UNL     1      -0.394   0.266   1.861  1.00  0.00     0.468 C 
ENDBRANCH  16  17
ENDBRANCH  14  16
ENDBRANCH   5  12
ENDBRANCH   2   5
ENDBRANCH   1   2
BRANCH   1  26
ATOM     26  C   UNL     1      11.858  -2.130   1.151  1.00  0.00     0.006 A 
ATOM     27  C   UNL     1      12.566  -3.311   1.284  1.00  0.00     0.010 A 
ATOM     28  C   UNL     1      12.467  -0.917   1.416  1.00  0.00     0.010 A 
ATOM     29  C   UNL     1      13.885  -3.286   1.688  1.00  0.00     0.014 A 
ATOM     30  C   UNL     1      13.784  -0.878   1.825  1.00  0.00     0.014 A 
ATOM     31  C   UNL     1      14.505  -2.066   1.962  1.00  0.00     0.040 A 
BRANCH  31  32
ATOM     32  C   UNL     1      15.918  -2.031   2.395  1.00  0.00     0.253 C 
ATOM     33  O   UNL     1      16.713  -2.829   1.939  1.00  0.00    -0.269 OA
ATOM     34  N   UNL     1      16.324  -1.114   3.295  1.00  0.00    -0.339 N 
BRANCH  34  35
ATOM     35  C   UNL     1      17.707  -1.190   3.807  1.00  0.00     0.120 C 
BRANCH  35  36
ATOM     36  C   UNL     1      18.367   0.197   3.902  1.00  0.00     0.022 C 
BRANCH  36  37
ATOM     37  C   UNL     1      18.003   1.028   2.697  1.00  0.00     0.002 CG0
ATOM     38  G   UNL     1      16.752   1.845   3.005  1.00  0.00     0.000 G0
ENDBRANCH  36  37
ENDBRANCH  35  36
ENDBRANCH  34  35
BRANCH  34  39
ATOM     39  C   UNL     1      15.390  -0.094   3.716  1.00  0.00     0.120 C 
BRANCH  39  40
ATOM     40  C   UNL     1      15.488   1.127   2.777  1.00  0.00     0.022 C 
BRANCH  40  41
ATOM     41  C   UNL     1      16.752   1.845   3.005  1.00  0.00     0.002 CG0
ATOM     42  G   UNL     1      18.003   1.028   2.697  1.00  0.00     0.000 G0
ENDBRANCH  40  41
ENDBRANCH  39  40
ENDBRANCH  34  39
ENDBRANCH  31  32
ENDBRANCH   1  26
TORSDOF 8
