REMARK SMILES Cc1cc2nc(SCC(=O)Nc3nnc(SCc4ccccc4)s3)[nH]c2cc1C
REMARK SMILES IDX 12 1 13 2 14 3 15 4 24 5 11 6 9 7 10 8 8 10 7 11 6 12 29 13
REMARK SMILES IDX 28 14 2 15 27 16 3 17 1 18 26 19 4 20 25 21 5 22 16 24 17 25
REMARK SMILES IDX 18 26 23 27 19 28 22 29 20 30 21 31
REMARK H PARENT 11 9 25 23
REMARK Flexibility Score: inf
ROOT
ATOM      1  C   UNL     1      -2.501   7.319   0.054  1.00  0.00     0.213 A 
ATOM      2  N   UNL     1      -3.816   7.176   0.060  1.00  0.00    -0.119 NA
ATOM      3  N   UNL     1      -4.596   8.166   0.070  1.00  0.00    -0.130 NA
ATOM      4  C   UNL     1      -4.147   9.413   0.074  1.00  0.00     0.176 A 
ATOM      5  S   UNL     1      -2.383   9.106   0.071  1.00  0.00    -0.068 S 
ENDROOT
BRANCH   1   6
ATOM      6  N   UNL     1      -1.495   6.356   0.044  1.00  0.00    -0.300 N 
ATOM      7  C   UNL     1      -1.815   5.047   0.038  1.00  0.00     0.236 C 
ATOM      8  O   UNL     1      -2.980   4.708   0.042  1.00  0.00    -0.274 OA
ATOM      9  H   UNL     1      -0.506   6.644   0.041  1.00  0.00     0.172 HD
BRANCH   7  10
ATOM     10  C   UNL     1      -0.727   4.005   0.027  1.00  0.00     0.178 C 
BRANCH  10  11
ATOM     11  S   UNL     1      -1.472   2.355   0.022  1.00  0.00    -0.078 SA
BRANCH  11  12
ATOM     12  C   UNL     1      -0.017   1.362   0.009  1.00  0.00     0.166 A 
ATOM     13  C   UNL     1       4.041  -3.023  -0.054  1.00  0.00     0.044 C 
ATOM     14  C   UNL     1       3.348  -1.685  -0.040  1.00  0.00    -0.046 A 
ATOM     15  C   UNL     1       4.100  -0.520  -0.040  1.00  0.00    -0.046 A 
ATOM     16  C   UNL     1       1.969  -1.627  -0.026  1.00  0.00     0.032 A 
ATOM     17  C   UNL     1       3.483   0.711  -0.027  1.00  0.00     0.034 A 
ATOM     18  C   UNL     1       5.605  -0.602  -0.054  1.00  0.00     0.044 C 
ATOM     19  C   UNL     1       1.331  -0.397  -0.013  1.00  0.00     0.066 A 
ATOM     20  C   UNL     1       2.088   0.787  -0.014  1.00  0.00     0.090 A 
ATOM     21  N   UNL     1       0.002  -0.004   0.002  1.00  0.00    -0.333 N 
ATOM     22  N   UNL     1       1.210   1.824   0.000  1.00  0.00    -0.223 NA
ATOM     23  H   UNL     1      -0.819  -0.626   0.006  1.00  0.00     0.169 HD
ENDBRANCH  11  12
ENDBRANCH  10  11
ENDBRANCH   7  10
ENDBRANCH   1   6
BRANCH   4  24
ATOM     24  S   UNL     1      -5.032  10.936   0.088  1.00  0.00    -0.089 SA
BRANCH  24  25
ATOM     25  C   UNL     1      -6.774  10.431   0.095  1.00  0.00     0.113 C 
BRANCH  25  26
ATOM     26  C   UNL     1      -7.652  11.656   0.107  1.00  0.00    -0.038 A 
ATOM     27  C   UNL     1      -8.061  12.225  -1.085  1.00  0.00     0.004 A 
ATOM     28  C   UNL     1      -8.053  12.208   1.309  1.00  0.00     0.004 A 
ATOM     29  C   UNL     1      -8.867  13.349  -1.074  1.00  0.00     0.000 A 
ATOM     30  C   UNL     1      -8.853  13.335   1.320  1.00  0.00     0.000 A 
ATOM     31  C   UNL     1      -9.262  13.903   0.129  1.00  0.00     0.000 A 
ENDBRANCH  25  26
ENDBRANCH  24  25
ENDBRANCH   4  24
TORSDOF 7
