REMARK SMILES CCOc1cc(C[NH2+]CCNC(=O)c2ccco2)ccc1OCC(=O)N1C[C@@]2(C)C[C@@H]1CC(C)(C)C2
REMARK SMILES IDX 7 1 6 2 4 3 21 4 5 5 20 6 19 7 3 8 2 9 1 10 22 11 23 12
REMARK SMILES IDX 24 13 25 14 26 15 31 16 27 17 30 18 32 19 28 20 33 21 36 22
REMARK SMILES IDX 29 23 34 24 35 25 8 26 9 29 10 30 11 31 12 32 13 34 14 35
REMARK SMILES IDX 18 36 15 37 17 38 16 39
REMARK H PARENT 8 27 8 28 11 33
REMARK Flexibility Score: inf
ROOT
ATOM      1  C   UNL     1       1.227  -2.186  -0.021  1.00  0.00     0.297 C 
ENDROOT
BRANCH   1   2
ATOM      2  C   UNL     1       1.208  -0.679  -0.013  1.00  0.00     0.010 A 
ATOM      3  C   UNL     1      -0.017   1.381   0.010  1.00  0.00     0.161 A 
ATOM      4  C   UNL     1       1.181   2.091   0.002  1.00  0.00     0.161 A 
ATOM      5  C   UNL     1       0.002  -0.004   0.002  1.00  0.00     0.060 A 
ATOM      6  C   UNL     1       2.386   1.408  -0.014  1.00  0.00     0.051 A 
ATOM      7  C   UNL     1       2.398   0.026  -0.021  1.00  0.00     0.013 A 
BRANCH   3   8
ATOM      8  O   UNL     1      -1.203   2.047   0.019  1.00  0.00    -0.490 OA
BRANCH   8   9
ATOM      9  C   UNL     1      -2.392   1.254   0.020  1.00  0.00     0.226 C 
ATOM     10  C   UNL     1      -3.616   2.171   0.031  1.00  0.00     0.049 C 
ENDBRANCH   8   9
ENDBRANCH   3   8
BRANCH   4  11
ATOM     11  O   UNL     1       1.167   3.450   0.009  1.00  0.00    -0.480 OA
BRANCH  11  12
ATOM     12  C   UNL     1       2.434   4.112   0.001  1.00  0.00     0.329 C 
BRANCH  12  13
ATOM     13  C   UNL     1       2.222   5.604   0.010  1.00  0.00     0.260 C 
ATOM     14  O   UNL     1       1.097   6.056   0.023  1.00  0.00    -0.271 OA
BRANCH  13  15
ATOM     15  N   UNL     1       3.284   6.436   0.004  1.00  0.00    -0.336 N 
ATOM     16  C   UNL     1       3.233   7.909   0.012  1.00  0.00     0.086 C 
ATOM     17  C   UNL     1       4.697   6.025  -0.032  1.00  0.00     0.126 C 
ATOM     18  C   UNL     1       4.583   8.362  -0.603  1.00  0.00     0.033 C 
ATOM     19  C   UNL     1       3.223   8.419   1.456  1.00  0.00     0.031 C 
ATOM     20  C   UNL     1       5.529   7.324   0.063  1.00  0.00    -0.012 C 
ATOM     21  C   UNL     1       4.374   7.868   2.285  1.00  0.00    -0.033 C 
ATOM     22  C   UNL     1       5.684   7.719   1.530  1.00  0.00     0.015 C 
ATOM     23  C   UNL     1       6.876   7.210  -0.667  1.00  0.00     0.013 C 
ATOM     24  C   UNL     1       4.626   8.883   3.430  1.00  0.00     0.011 C 
ATOM     25  C   UNL     1       3.974   6.551   2.954  1.00  0.00     0.011 C 
ENDBRANCH  13  15
ENDBRANCH  12  13
ENDBRANCH  11  12
ENDBRANCH   4  11
ENDBRANCH   1   2
BRANCH   1  26
ATOM     26  N   UNL     1       1.220  -2.668  -1.409  1.00  0.00    -0.341 N 
ATOM     27  H   UNL     1       0.373  -2.324  -1.884  1.00  0.00     0.346 HD
ATOM     28  H   UNL     1       2.048  -2.303  -1.901  1.00  0.00     0.346 HD
BRANCH  26  29
ATOM     29  C   UNL     1       1.238  -4.136  -1.456  1.00  0.00     0.282 C 
BRANCH  29  30
ATOM     30  C   UNL     1       1.229  -4.600  -2.914  1.00  0.00     0.177 C 
BRANCH  30  31
ATOM     31  N   UNL     1       1.247  -6.064  -2.961  1.00  0.00    -0.344 N 
ATOM     32  C   UNL     1       1.244  -6.700  -4.150  1.00  0.00     0.287 C 
ATOM     33  H   UNL     1       1.262  -6.607  -2.087  1.00  0.00     0.164 HD
ATOM     34  O   UNL     1       1.226  -6.058  -5.183  1.00  0.00    -0.266 OA
BRANCH  32  35
ATOM     35  C   UNL     1       1.261  -8.165  -4.197  1.00  0.00     0.191 A 
ATOM     36  O   UNL     1       1.288  -8.993  -3.131  1.00  0.00    -0.459 OA
ATOM     37  C   UNL     1       1.260  -8.932  -5.327  1.00  0.00     0.056 A 
ATOM     38  C   UNL     1       1.294 -10.263  -3.555  1.00  0.00     0.196 A 
ATOM     39  C   UNL     1       1.281 -10.271  -4.906  1.00  0.00     0.043 A 
ENDBRANCH  32  35
ENDBRANCH  30  31
ENDBRANCH  29  30
ENDBRANCH  26  29
ENDBRANCH   1  26
TORSDOF 12
