REMARK SMILES Cn1cc(Cl)cc1C(=O)NNC(=O)c1ccccc1-c1ncc(-c2ccccc2F)o1
REMARK SMILES IDX 14 1 15 2 16 3 17 4 18 5 19 6 12 7 11 8 13 10 10 11 8 12
REMARK SMILES IDX 9 13 7 15 1 16 2 17 3 18 6 19 4 20 5 21 20 22 31 23 21 24
REMARK SMILES IDX 23 25 22 26 24 27 29 28 25 29 28 30 30 31 26 32 27 33
REMARK H PARENT 11 9 10 14
REMARK Flexibility Score: inf
ROOT
ATOM      1  C   UNL     1       2.479   4.375   1.676  1.00  0.00     0.054 A 
ATOM      2  C   UNL     1       3.690   3.702   1.831  1.00  0.00     0.015 A 
ATOM      3  C   UNL     1       4.881   4.393   1.737  1.00  0.00     0.001 A 
ATOM      4  C   UNL     1       4.883   5.758   1.497  1.00  0.00     0.001 A 
ATOM      5  C   UNL     1       3.696   6.444   1.345  1.00  0.00     0.014 A 
ATOM      6  C   UNL     1       2.482   5.763   1.432  1.00  0.00     0.050 A 
ENDROOT
BRANCH   1   7
ATOM      7  C   UNL     1       1.203   3.640   1.771  1.00  0.00     0.270 C 
ATOM      8  N   UNL     1       1.206   2.301   1.926  1.00  0.00    -0.263 N 
ATOM      9  H   UNL     1       2.100   1.791   1.977  1.00  0.00     0.191 HD
ATOM     10  O   UNL     1       0.148   4.242   1.710  1.00  0.00    -0.267 OA
BRANCH   8  11
ATOM     11  N   UNL     1      -0.005   1.603   2.016  1.00  0.00    -0.262 N 
ATOM     12  C   UNL     1      -0.002   0.264   2.171  1.00  0.00     0.286 C 
ATOM     13  O   UNL     1       1.049  -0.349   2.140  1.00  0.00    -0.266 OA
ATOM     14  H   UNL     1      -0.898   2.113   1.965  1.00  0.00     0.191 HD
BRANCH  12  15
ATOM     15  C   UNL     1      -1.264  -0.454   2.376  1.00  0.00     0.110 A 
ATOM     16  C   UNL     1      -0.305  -2.760   2.767  1.00  0.00     0.150 C 
ATOM     17  N   UNL     1      -1.402  -1.797   2.641  1.00  0.00    -0.345 N 
ATOM     18  C   UNL     1      -2.722  -2.081   2.766  1.00  0.00     0.106 A 
ATOM     19  C   UNL     1      -2.528   0.096   2.344  1.00  0.00     0.054 A 
ATOM     20  C   UNL     1      -3.434  -0.942   2.585  1.00  0.00     0.059 A 
ATOM     21  Cl  UNL     1      -5.163  -0.797   2.649  1.00  0.00    -0.083 Cl
ENDBRANCH  12  15
ENDBRANCH   8  11
ENDBRANCH   1   7
BRANCH   6  22
ATOM     22  C   UNL     1       1.209   6.491   1.272  1.00  0.00     0.227 A 
ATOM     23  O   UNL     1       0.248   6.199   0.377  1.00  0.00    -0.436 OA
ATOM     24  N   UNL     1       0.831   7.535   1.975  1.00  0.00    -0.217 NA
ATOM     25  C   UNL     1      -0.753   7.090   0.547  1.00  0.00     0.158 A 
ATOM     26  C   UNL     1      -0.374   7.927   1.553  1.00  0.00     0.163 A 
BRANCH  25  27
ATOM     27  C   UNL     1      -2.017   7.148  -0.215  1.00  0.00     0.055 A 
ATOM     28  C   UNL     1      -3.240   7.226   0.457  1.00  0.00     0.134 A 
ATOM     29  C   UNL     1      -1.995   7.121  -1.611  1.00  0.00     0.015 A 
ATOM     30  C   UNL     1      -4.418   7.286  -0.265  1.00  0.00     0.040 A 
ATOM     31  F   UNL     1      -3.271   7.248   1.807  1.00  0.00    -0.206 F 
ATOM     32  C   UNL     1      -3.179   7.176  -2.317  1.00  0.00     0.001 A 
ATOM     33  C   UNL     1      -4.387   7.258  -1.647  1.00  0.00     0.003 A 
ENDBRANCH  25  27
ENDBRANCH   6  22
TORSDOF 5
