REMARK SMILES Cc1n[nH]c(C)c1Cc1ccc([N-]C(=S)NC(=O)/C=C/c2ccc(Cl)cc2Cl)cc1
REMARK SMILES IDX 14 1 15 2 13 3 12 4 9 5 30 6 10 7 29 8 11 9 8 10 7 11 6 12
REMARK SMILES IDX 5 13 4 14 3 15 2 17 1 18 16 19 17 20 18 22 19 23 20 24 21 25
REMARK SMILES IDX 27 26 22 27 26 28 28 29 23 30 24 31 25 32
REMARK H PARENT 4 16 16 21
REMARK Flexibility Score: inf
ROOT
ATOM      1  C   UNL     1      -2.225  -0.160  -0.760  1.00  0.00     0.010 C 
ATOM      2  S   UNL     1      -3.546  -0.679  -1.717  1.00  0.00    -0.090 S 
ENDROOT
BRANCH   1   3
ATOM      3  N   UNL     1      -2.345   0.934   0.018  1.00  0.00    -0.427 NA
BRANCH   3   4
ATOM      4  C   UNL     1      -3.518   1.696  -0.023  1.00  0.00    -0.041 A 
ATOM      5  C   UNL     1      -5.836   3.203  -0.105  1.00  0.00    -0.043 A 
ATOM      6  C   UNL     1      -4.604   3.831  -0.133  1.00  0.00     0.004 A 
ATOM      7  C   UNL     1      -5.912   1.824  -0.035  1.00  0.00     0.004 A 
ATOM      8  C   UNL     1      -3.445   3.082  -0.086  1.00  0.00     0.004 A 
ATOM      9  C   UNL     1      -4.756   1.069   0.005  1.00  0.00     0.004 A 
BRANCH   5  10
ATOM     10  C   UNL     1      -7.099   4.024  -0.150  1.00  0.00     0.074 C 
BRANCH  10  11
ATOM     11  C   UNL     1      -7.525   4.369   1.254  1.00  0.00     0.000 A 
ATOM     12  C   UNL     1      -9.008   2.335   1.663  1.00  0.00     0.066 C 
ATOM     13  C   UNL     1      -8.351   3.638   2.038  1.00  0.00     0.036 A 
ATOM     14  N   UNL     1      -8.478   4.284   3.216  1.00  0.00    -0.282 N 
ATOM     15  N   UNL     1      -7.711   5.455   3.151  1.00  0.00    -0.181 NA
ATOM     16  H   UNL     1      -9.039   3.971   4.021  1.00  0.00     0.190 HD
ATOM     17  C   UNL     1      -7.141   5.505   1.975  1.00  0.00     0.063 A 
ATOM     18  C   UNL     1      -6.228   6.597   1.481  1.00  0.00     0.069 C 
ENDBRANCH  10  11
ENDBRANCH   5  10
ENDBRANCH   3   4
ENDBRANCH   1   3
BRANCH   1  19
ATOM     19  N   UNL     1      -1.065  -0.845  -0.784  1.00  0.00    -0.416 N 
ATOM     20  C   UNL     1      -0.946  -1.942  -1.558  1.00  0.00     0.169 C 
ATOM     21  H   UNL     1      -0.269  -0.530  -0.211  1.00  0.00     0.030 HD
ATOM     22  O   UNL     1      -1.885  -2.311  -2.239  1.00  0.00    -0.294 OA
BRANCH  20  23
ATOM     23  C   UNL     1       0.311  -2.689  -1.580  1.00  0.00     0.048 C 
ATOM     24  C   UNL     1       0.429  -3.788  -2.355  1.00  0.00     0.013 C 
BRANCH  24  25
ATOM     25  C   UNL     1       1.694  -4.539  -2.377  1.00  0.00    -0.007 A 
ATOM     26  C   UNL     1       1.821  -5.679  -3.179  1.00  0.00     0.049 A 
ATOM     27  C   UNL     1       2.777  -4.115  -1.600  1.00  0.00     0.011 A 
ATOM     28  C   UNL     1       3.010  -6.378  -3.194  1.00  0.00     0.041 A 
ATOM     29  Cl  UNL     1       0.486  -6.211  -4.154  1.00  0.00    -0.084 Cl
ATOM     30  C   UNL     1       3.957  -4.827  -1.621  1.00  0.00     0.021 A 
ATOM     31  C   UNL     1       4.076  -5.955  -2.418  1.00  0.00     0.042 A 
ATOM     32  Cl  UNL     1       5.569  -6.841  -2.443  1.00  0.00    -0.084 Cl
ENDBRANCH  24  25
ENDBRANCH  20  23
ENDBRANCH   1  19
TORSDOF 7
