REMARK SMILES O=C(N/N=C/c1ccc(O)cc1O)c1nn(Cc2ccc(Br)cc2)cc1Br
REMARK SMILES IDX 2 1 1 2 3 3 14 5 16 6 15 7 25 8 26 9 27 10 17 11 18 12 19 13
REMARK SMILES IDX 20 14 24 15 21 16 23 17 22 18 4 19 5 20 6 21 12 22 7 23
REMARK SMILES IDX 11 24 8 25 9 26 13 27 10 29
REMARK H PARENT 3 4 13 28 10 30
REMARK Flexibility Score: inf
ROOT
ATOM      1  C   UNL     1       0.973  -3.146  -1.367  1.00  0.00     0.293 C 
ATOM      2  O   UNL     1       0.739  -4.284  -1.010  1.00  0.00    -0.265 OA
ATOM      3  N   UNL     1       1.724  -2.925  -2.465  1.00  0.00    -0.242 N 
ATOM      4  H   UNL     1       1.922  -1.960  -2.768  1.00  0.00     0.194 HD
ENDROOT
BRANCH   1   5
ATOM      5  C   UNL     1       0.435  -2.005  -0.600  1.00  0.00     0.166 A 
ATOM      6  N   UNL     1       0.002  -0.004   0.002  1.00  0.00    -0.266 N 
ATOM      7  N   UNL     1       0.603  -0.727  -0.874  1.00  0.00    -0.166 NA
ATOM      8  C   UNL     1      -0.616  -0.794   0.914  1.00  0.00     0.125 A 
ATOM      9  C   UNL     1      -0.365  -2.079   0.566  1.00  0.00     0.069 A 
ATOM     10  Br  UNL     1      -0.957  -3.641   1.451  1.00  0.00    -0.047 Br
BRANCH   6  11
ATOM     11  C   UNL     1      -0.018   1.461   0.010  1.00  0.00     0.179 C 
BRANCH  11  12
ATOM     12  C   UNL     1       1.396   1.982  -0.001  1.00  0.00    -0.026 A 
ATOM     13  C   UNL     1       2.054   2.221   1.192  1.00  0.00     0.007 A 
ATOM     14  C   UNL     1       3.352   2.694   1.182  1.00  0.00     0.016 A 
ATOM     15  C   UNL     1       2.033   2.228  -1.203  1.00  0.00     0.007 A 
ATOM     16  C   UNL     1       3.990   2.940  -0.020  1.00  0.00     0.017 A 
ATOM     17  C   UNL     1       3.329   2.707  -1.213  1.00  0.00     0.016 A 
ATOM     18  Br  UNL     1       5.764   3.595  -0.034  1.00  0.00    -0.051 Br
ENDBRANCH  11  12
ENDBRANCH   6  11
ENDBRANCH   1   5
BRANCH   3  19
ATOM     19  N   UNL     1       2.235  -4.007  -3.193  1.00  0.00    -0.180 NA
ATOM     20  C   UNL     1       2.958  -3.794  -4.250  1.00  0.00     0.145 C 
BRANCH  20  21
ATOM     21  C   UNL     1       3.496  -4.932  -5.016  1.00  0.00     0.037 A 
ATOM     22  C   UNL     1       3.232  -6.245  -4.603  1.00  0.00     0.128 A 
ATOM     23  C   UNL     1       4.274  -4.706  -6.155  1.00  0.00     0.017 A 
ATOM     24  C   UNL     1       3.738  -7.309  -5.331  1.00  0.00     0.093 A 
ATOM     25  C   UNL     1       4.775  -5.773  -6.868  1.00  0.00     0.047 A 
ATOM     26  C   UNL     1       4.509  -7.074  -6.459  1.00  0.00     0.119 A 
BRANCH  22  27
ATOM     27  O   UNL     1       2.481  -6.474  -3.495  1.00  0.00    -0.507 OA
ATOM     28  H   UNL     1       1.628  -6.002  -3.666  1.00  0.00     0.293 HD
ENDBRANCH  22  27
BRANCH  26  29
ATOM     29  O   UNL     1       5.007  -8.121  -7.168  1.00  0.00    -0.508 OA
ATOM     30  H   UNL     1       5.986  -7.973  -7.189  1.00  0.00     0.293 HD
ENDBRANCH  26  29
ENDBRANCH  20  21
ENDBRANCH   3  19
TORSDOF 7
