REMARK SMILES CCCCCCn1c(O)c(-c2nc(=O)c3ccccc3[n-]2)c(=O)c2ccccc21
REMARK SMILES IDX 5 1 4 2 3 3 2 4 1 5 6 6 7 7 8 8 29 9 10 10 24 11 28 12 22 13
REMARK SMILES IDX 25 14 27 15 23 16 26 17 9 18 11 20 21 21 12 22 20 23 13 24
REMARK SMILES IDX 15 25 19 26 14 27 16 28 18 29 17 30
REMARK H PARENT 9 19
REMARK Flexibility Score: inf
ROOT
ATOM      1  C   UNL     1      -1.415   3.970  -1.614  1.00  0.00     0.022 C 
ENDROOT
BRANCH   1   2
ATOM      2  C   UNL     1      -1.398   5.497  -1.708  1.00  0.00     0.002 C 
BRANCH   2   3
ATOM      3  C   UNL     1      -1.615   5.920  -3.162  1.00  0.00    -0.000 C 
BRANCH   3   4
ATOM      4  C   UNL     1      -1.598   7.447  -3.256  1.00  0.00    -0.003 C 
ATOM      5  C   UNL     1      -1.815   7.871  -4.710  1.00  0.00     0.004 C 
ENDBRANCH   3   4
ENDBRANCH   2   3
ENDBRANCH   1   2
BRANCH   1   6
ATOM      6  C   UNL     1      -1.197   3.546  -0.160  1.00  0.00     0.126 C 
BRANCH   6   7
ATOM      7  N   UNL     1      -1.214   2.083  -0.070  1.00  0.00    -0.312 N 
ATOM      8  C   UNL     1      -2.382   1.453   0.139  1.00  0.00     0.202 A 
ATOM      9  C   UNL     1      -0.030   1.388  -0.214  1.00  0.00     0.055 A 
ATOM     10  C   UNL     1      -2.442  -0.004   0.236  1.00  0.00     0.082 A 
ATOM     11  C   UNL     1      -0.013  -0.015  -0.132  1.00  0.00     0.047 A 
ATOM     12  C   UNL     1       1.162   2.072  -0.436  1.00  0.00     0.027 A 
ATOM     13  C   UNL     1      -1.265  -0.742   0.102  1.00  0.00     0.200 A 
ATOM     14  C   UNL     1       1.196  -0.707  -0.274  1.00  0.00     0.014 A 
ATOM     15  C   UNL     1       2.341   1.371  -0.572  1.00  0.00     0.002 A 
ATOM     16  O   UNL     1      -1.279  -2.089   0.184  1.00  0.00    -0.288 OA
ATOM     17  C   UNL     1       2.353  -0.015  -0.490  1.00  0.00     0.001 A 
BRANCH   8  18
ATOM     18  O   UNL     1      -3.404   2.106   0.255  1.00  0.00    -0.494 OA
ATOM     19  H   UNL     1      -3.461   2.645  -0.573  1.00  0.00     0.295 HD
ENDBRANCH   8  18
BRANCH  10  20
ATOM     20  C   UNL     1      -3.724  -0.683   0.471  1.00  0.00    -0.039 A 
ATOM     21  N   UNL     1      -3.892  -1.332   1.599  1.00  0.00    -0.435 NA
ATOM     22  N   UNL     1      -4.688  -0.616  -0.500  1.00  0.00    -0.400 NA
ATOM     23  C   UNL     1      -5.043  -1.972   1.882  1.00  0.00    -0.030 A 
ATOM     24  C   UNL     1      -5.882  -1.227  -0.324  1.00  0.00     0.178 A 
ATOM     25  C   UNL     1      -6.093  -1.955   0.936  1.00  0.00     0.022 A 
ATOM     26  C   UNL     1      -5.220  -2.659   3.088  1.00  0.00     0.004 A 
ATOM     27  O   UNL     1      -6.749  -1.177  -1.176  1.00  0.00    -0.293 OA
ATOM     28  C   UNL     1      -7.288  -2.617   1.211  1.00  0.00     0.012 A 
ATOM     29  C   UNL     1      -6.400  -3.301   3.336  1.00  0.00     0.000 A 
ATOM     30  C   UNL     1      -7.432  -3.284   2.407  1.00  0.00     0.001 A 
ENDBRANCH  10  20
ENDBRANCH   6   7
ENDBRANCH   1   6
TORSDOF 7
