REMARK SMILES C[C@H](Sc1nnc(CN2CCCC2)n1-c1ccc(Cl)cc1)c1nc(N)nc(N(C)C)n1
REMARK SMILES IDX 3 1 2 2 1 3 22 4 31 5 23 6 27 7 24 8 26 9 28 10 29 11 30 12
REMARK SMILES IDX 25 13 4 16 14 17 5 18 7 19 6 20 15 21 21 22 16 23 20 24
REMARK SMILES IDX 17 25 18 26 19 27 8 28 9 29 13 30 10 31 12 32 11 33
REMARK H PARENT 25 14 25 15
REMARK Flexibility Score: inf
ROOT
ATOM      1  S   UNL     1      -1.228   3.446   0.994  1.00  0.00    -0.074 SA
ENDROOT
BRANCH   1   2
ATOM      2  C   UNL     1      -1.357   2.222  -0.333  1.00  0.00     0.120 C 
ATOM      3  C   UNL     1      -1.686   2.930  -1.649  1.00  0.00     0.028 C 
BRANCH   2   4
ATOM      4  C   UNL     1      -0.046   1.491  -0.470  1.00  0.00     0.149 A 
ATOM      5  N   UNL     1      -0.037   0.176  -0.599  1.00  0.00    -0.196 NA
ATOM      6  N   UNL     1       1.089   2.166  -0.466  1.00  0.00    -0.197 NA
ATOM      7  C   UNL     1       1.119  -0.474  -0.726  1.00  0.00     0.229 A 
ATOM      8  C   UNL     1       2.248   1.524  -0.592  1.00  0.00     0.225 A 
ATOM      9  N   UNL     1       2.262   0.202  -0.722  1.00  0.00    -0.177 NA
BRANCH   7  10
ATOM     10  N   UNL     1       1.128  -1.847  -0.860  1.00  0.00    -0.347 N 
ATOM     11  C   UNL     1      -0.134  -2.591  -0.863  1.00  0.00     0.146 C 
ATOM     12  C   UNL     1       2.400  -2.561  -0.999  1.00  0.00     0.146 C 
ENDBRANCH   7  10
BRANCH   8  13
ATOM     13  N   UNL     1       3.434   2.230  -0.587  1.00  0.00    -0.368 N 
ATOM     14  H   UNL     1       3.422   3.255  -0.486  1.00  0.00     0.159 HD
ATOM     15  H   UNL     1       4.330   1.733  -0.685  1.00  0.00     0.159 HD
ENDBRANCH   8  13
ENDBRANCH   2   4
ENDBRANCH   1   2
BRANCH   1  16
ATOM     16  C   UNL     1      -2.891   4.027   1.037  1.00  0.00     0.196 A 
ATOM     17  N   UNL     1      -3.398   4.982   1.874  1.00  0.00    -0.273 N 
ATOM     18  N   UNL     1      -3.880   3.621   0.275  1.00  0.00    -0.123 NA
ATOM     19  C   UNL     1      -4.722   5.101   1.541  1.00  0.00     0.152 A 
ATOM     20  N   UNL     1      -4.955   4.257   0.577  1.00  0.00    -0.133 NA
BRANCH  17  21
ATOM     21  C   UNL     1      -2.707   5.694   2.866  1.00  0.00     0.050 A 
ATOM     22  C   UNL     1      -1.716   6.599   2.509  1.00  0.00     0.028 A 
ATOM     23  C   UNL     1      -3.015   5.500   4.205  1.00  0.00     0.028 A 
ATOM     24  C   UNL     1      -1.037   7.299   3.486  1.00  0.00     0.022 A 
ATOM     25  C   UNL     1      -2.330   6.198   5.179  1.00  0.00     0.022 A 
ATOM     26  C   UNL     1      -1.343   7.099   4.821  1.00  0.00     0.041 A 
ATOM     27  Cl  UNL     1      -0.487   7.980   6.048  1.00  0.00    -0.084 Cl
ENDBRANCH  17  21
BRANCH  19  28
ATOM     28  C   UNL     1      -5.723   6.031   2.177  1.00  0.00     0.162 C 
BRANCH  28  29
ATOM     29  N   UNL     1      -5.642   7.350   1.536  1.00  0.00    -0.296 NA
ATOM     30  C   UNL     1      -6.682   8.260   2.062  1.00  0.00     0.085 C 
ATOM     31  C   UNL     1      -5.894   7.248   0.075  1.00  0.00     0.085 C 
ATOM     32  C   UNL     1      -7.120   9.167   0.898  1.00  0.00     0.017 C 
ATOM     33  C   UNL     1      -6.290   8.694  -0.318  1.00  0.00     0.017 C 
ENDBRANCH  28  29
ENDBRANCH  19  28
ENDBRANCH   1  16
TORSDOF 8
