REMARK SMILES Cc1c(CC(=O)NC2CC(C)(C)[NH2+]C(C)(C)C2)c(=O)oc2cc3c(cc12)CCC1(CCCCC1)O3
REMARK SMILES IDX 5 1 6 2 7 3 4 5 3 6 1 7 2 8 26 9 18 10 21 11 25 12 20 13
REMARK SMILES IDX 19 14 22 15 24 16 23 17 27 18 35 19 28 20 29 21 34 22 30 23
REMARK SMILES IDX 33 24 31 25 32 26 8 27 9 28 17 29 10 30 14 31 11 32 12 33
REMARK SMILES IDX 13 34 15 35 16 36
REMARK H PARENT 7 4 13 37 13 38
REMARK Flexibility Score: inf
ROOT
ATOM      1  C   UNL     1       1.762  -4.953  -7.131  1.00  0.00     0.224 C 
ATOM      2  O   UNL     1       2.397  -4.296  -6.333  1.00  0.00    -0.275 OA
ATOM      3  N   UNL     1       2.394  -5.572  -8.147  1.00  0.00    -0.353 N 
ATOM      4  H   UNL     1       1.855  -6.130  -8.825  1.00  0.00     0.163 HD
ENDROOT
BRANCH   1   5
ATOM      5  C   UNL     1       0.267  -5.076  -6.985  1.00  0.00     0.143 C 
BRANCH   5   6
ATOM      6  C   UNL     1      -0.186  -4.295  -5.778  1.00  0.00     0.051 A 
ATOM      7  C   UNL     1      -0.480  -2.289  -7.236  1.00  0.00     0.046 C 
ATOM      8  C   UNL     1      -0.535  -2.988  -5.902  1.00  0.00    -0.029 A 
ATOM      9  C   UNL     1      -0.967  -2.281  -4.693  1.00  0.00     0.021 A 
ATOM     10  C   UNL     1      -0.249  -4.917  -4.516  1.00  0.00     0.340 A 
ATOM     11  C   UNL     1      -1.003  -2.978  -3.472  1.00  0.00     0.142 A 
ATOM     12  C   UNL     1      -1.338  -0.934  -4.742  1.00  0.00     0.019 A 
ATOM     13  O   UNL     1      -0.645  -4.276  -3.412  1.00  0.00    -0.422 OA
ATOM     14  O   UNL     1       0.070  -6.089  -4.427  1.00  0.00    -0.246 OA
ATOM     15  C   UNL     1      -1.412  -2.310  -2.327  1.00  0.00     0.094 A 
ATOM     16  C   UNL     1      -1.737  -0.289  -3.603  1.00  0.00    -0.005 A 
ATOM     17  C   UNL     1      -1.779  -0.972  -2.391  1.00  0.00     0.127 A 
ATOM     18  C   UNL     1      -2.123   1.166  -3.699  1.00  0.00     0.043 C 
ATOM     19  O   UNL     1      -2.177  -0.362  -1.244  1.00  0.00    -0.487 OA
ATOM     20  C   UNL     1      -2.929   1.569  -2.462  1.00  0.00     0.053 C 
ATOM     21  C   UNL     1      -2.188   1.065  -1.219  1.00  0.00     0.109 C 
ATOM     22  C   UNL     1      -2.905   1.555   0.039  1.00  0.00     0.048 C 
ATOM     23  C   UNL     1      -0.753   1.593  -1.232  1.00  0.00     0.048 C 
ATOM     24  C   UNL     1      -2.164   1.049   1.278  1.00  0.00     0.004 C 
ATOM     25  C   UNL     1      -0.013   1.086   0.008  1.00  0.00     0.004 C 
ATOM     26  C   UNL     1      -0.729   1.579   1.267  1.00  0.00     0.000 C 
ENDBRANCH   5   6
ENDBRANCH   1   5
BRANCH   3  27
ATOM     27  C   UNL     1       3.850  -5.452  -8.289  1.00  0.00     0.094 C 
ATOM     28  C   UNL     1       4.383  -6.662  -9.056  1.00  0.00     0.093 C 
ATOM     29  C   UNL     1       4.176  -4.190  -9.087  1.00  0.00     0.093 C 
ATOM     30  C   UNL     1       5.895  -6.554  -9.236  1.00  0.00     0.093 C 
ATOM     31  C   UNL     1       5.686  -4.051  -9.270  1.00  0.00     0.093 C 
ATOM     32  C   UNL     1       6.594  -6.873  -7.909  1.00  0.00     0.079 C 
ATOM     33  C   UNL     1       6.322  -7.638 -10.250  1.00  0.00     0.079 C 
ATOM     34  N   UNL     1       6.366  -5.261  -9.803  1.00  0.00    -0.337 N 
ATOM     35  C   UNL     1       6.320  -3.584  -7.954  1.00  0.00     0.079 C 
ATOM     36  C   UNL     1       5.927  -2.938 -10.314  1.00  0.00     0.079 C 
ATOM     37  H   UNL     1       7.378  -5.176  -9.627  1.00  0.00     0.347 HD
ATOM     38  H   UNL     1       6.240  -5.286 -10.825  1.00  0.00     0.347 HD
ENDBRANCH   3  27
TORSDOF 3
