REMARK SMILES O=C(CN1C(=O)[N-][C@@]2(CCCCc3ccccc32)C1=O)N[C@@H](c1ccc(F)cc1)c1cccs1
REMARK SMILES IDX 8 1 19 2 20 3 4 4 5 5 6 6 7 7 18 8 15 9 14 10 16 11 13 12
REMARK SMILES IDX 17 13 12 14 9 16 10 17 11 18 3 20 2 21 1 22 21 23 22 25
REMARK SMILES IDX 23 26 29 27 24 28 28 29 25 30 26 31 27 32 30 33 34 34 31 35
REMARK SMILES IDX 33 36 32 37
REMARK H PARENT 21 24
REMARK Flexibility Score: 80.00
ROOT
ATOM      1  C   UNL     1       3.461   1.998  -6.697  1.00  0.00     0.062 C 
ATOM      2  C   UNL     1       3.152   2.664  -5.388  1.00  0.00     0.160 C 
ATOM      3  O   UNL     1       2.260   3.437  -5.110  1.00  0.00    -0.298 OA
ATOM      4  N   UNL     1       4.098   2.229  -4.522  1.00  0.00    -0.372 N 
ATOM      5  C   UNL     1       4.881   1.300  -5.080  1.00  0.00     0.162 C 
ATOM      6  O   UNL     1       5.785   0.736  -4.494  1.00  0.00    -0.298 OA
ATOM      7  N   UNL     1       4.554   1.061  -6.362  1.00  0.00    -0.413 NA
ENDROOT
BRANCH   1   8
ATOM      8  C   UNL     1       3.967   2.976  -7.730  1.00  0.00    -0.032 A 
ATOM      9  C   UNL     1       5.045   4.684  -9.633  1.00  0.00     0.000 A 
ATOM     10  C   UNL     1       3.752   4.861  -9.184  1.00  0.00     0.004 A 
ATOM     11  C   UNL     1       5.808   3.649  -9.127  1.00  0.00     0.000 A 
ATOM     12  C   UNL     1       3.219   4.003  -8.228  1.00  0.00    -0.044 A 
ATOM     13  C   UNL     1       5.273   2.798  -8.181  1.00  0.00     0.005 A 
BRANCH  12  14
ATOM     14  C   UNL     1       1.795   4.274  -7.787  1.00  0.00     0.036 CG0
ATOM     15  G   UNL     1       0.909   3.105  -8.212  1.00  0.00     0.000 G0
ENDBRANCH  12  14
ENDBRANCH   1   8
BRANCH   1  16
ATOM     16  C   UNL     1       2.286   1.196  -7.244  1.00  0.00     0.019 C 
BRANCH  16  17
ATOM     17  C   UNL     1       0.987   1.973  -7.207  1.00  0.00     0.002 C 
BRANCH  17  18
ATOM     18  C   UNL     1       0.909   3.105  -8.212  1.00  0.00     0.005 CG0
ATOM     19  G   UNL     1       1.795   4.274  -7.787  1.00  0.00     0.000 G0
ENDBRANCH  17  18
ENDBRANCH  16  17
ENDBRANCH   1  16
BRANCH   4  20
ATOM     20  C   UNL     1       4.234   2.710  -3.146  1.00  0.00     0.112 C 
BRANCH  20  21
ATOM     21  C   UNL     1       3.402   1.850  -2.229  1.00  0.00     0.220 C 
ATOM     22  O   UNL     1       2.760   0.926  -2.681  1.00  0.00    -0.275 OA
ATOM     23  N   UNL     1       3.373   2.108  -0.906  1.00  0.00    -0.344 N 
ATOM     24  H   UNL     1       3.918   2.893  -0.522  1.00  0.00     0.164 HD
BRANCH  23  25
ATOM     25  C   UNL     1       2.565   1.272  -0.015  1.00  0.00     0.153 C 
BRANCH  25  26
ATOM     26  C   UNL     1       3.134   1.328   1.379  1.00  0.00    -0.020 A 
ATOM     27  C   UNL     1       3.185   0.182   2.151  1.00  0.00     0.009 A 
ATOM     28  C   UNL     1       3.610   2.524   1.883  1.00  0.00     0.009 A 
ATOM     29  C   UNL     1       3.707   0.232   3.429  1.00  0.00     0.039 A 
ATOM     30  C   UNL     1       4.127   2.577   3.164  1.00  0.00     0.039 A 
ATOM     31  C   UNL     1       4.179   1.430   3.937  1.00  0.00     0.123 A 
ATOM     32  F   UNL     1       4.689   1.480   5.187  1.00  0.00    -0.207 F 
ENDBRANCH  25  26
BRANCH  25  33
ATOM     33  C   UNL     1       1.146   1.780   0.001  1.00  0.00     0.031 A 
ATOM     34  S   UNL     1       0.555   3.464   0.015  1.00  0.00    -0.146 S 
ATOM     35  C   UNL     1      -0.013   1.076   0.008  1.00  0.00     0.018 A 
ATOM     36  C   UNL     1      -1.196   3.116   0.030  1.00  0.00     0.065 A 
ATOM     37  C   UNL     1      -1.213   1.761   0.017  1.00  0.00     0.012 A 
ENDBRANCH  25  33
ENDBRANCH  23  25
ENDBRANCH  20  21
ENDBRANCH   4  20
TORSDOF 5
