REMARK SMILES COc1ccc(-n2nnnc2C2([NH2+]CCc3c(C)[nH]c4c(Cl)c(Cl)ccc34)CCCCC2)cc1
REMARK SMILES IDX 12 1 28 2 29 3 30 4 31 5 32 6 13 7 14 10 15 11 16 12 18 13
REMARK SMILES IDX 17 14 19 15 20 16 27 18 21 19 26 20 23 21 22 22 25 23 24 24
REMARK SMILES IDX 11 25 7 26 10 27 8 28 9 29 6 30 33 31 5 32 34 33 4 34 3 35
REMARK SMILES IDX 2 36 1 37
REMARK H PARENT 13 8 13 9 19 17
REMARK Flexibility Score: inf
ROOT
ATOM      1  C   UNL     1       4.022  -5.758  -3.782  1.00  0.00     0.158 C 
ATOM      2  C   UNL     1       3.045  -6.265  -4.845  1.00  0.00     0.077 C 
ATOM      3  C   UNL     1       2.557  -7.664  -4.464  1.00  0.00     0.007 C 
ATOM      4  C   UNL     1       3.753  -8.614  -4.375  1.00  0.00     0.001 C 
ATOM      5  C   UNL     1       4.729  -8.108  -3.312  1.00  0.00     0.007 C 
ATOM      6  C   UNL     1       5.217  -6.708  -3.693  1.00  0.00     0.077 C 
ENDROOT
BRANCH   1   7
ATOM      7  N   UNL     1       3.343  -5.702  -2.480  1.00  0.00    -0.335 N 
ATOM      8  H   UNL     1       2.975  -6.636  -2.250  1.00  0.00     0.347 HD
ATOM      9  H   UNL     1       4.021  -5.424  -1.756  1.00  0.00     0.347 HD
BRANCH   7  10
ATOM     10  C   UNL     1       2.236  -4.736  -2.505  1.00  0.00     0.266 C 
BRANCH  10  11
ATOM     11  C   UNL     1       1.600  -4.654  -1.116  1.00  0.00     0.099 C 
BRANCH  11  12
ATOM     12  C   UNL     1       0.397  -3.748  -1.167  1.00  0.00    -0.014 A 
ATOM     13  C   UNL     1      -1.339  -5.542  -1.571  1.00  0.00     0.064 C 
ATOM     14  C   UNL     1      -0.877  -4.123  -1.363  1.00  0.00     0.016 A 
ATOM     15  N   UNL     1      -1.694  -3.025  -1.346  1.00  0.00    -0.357 N 
ATOM     16  C   UNL     1      -0.946  -1.889  -1.133  1.00  0.00     0.066 A 
ATOM     17  H   UNL     1      -2.716  -3.046  -1.473  1.00  0.00     0.166 HD
ATOM     18  C   UNL     1       0.396  -2.291  -1.011  1.00  0.00     0.005 A 
ATOM     19  C   UNL     1      -1.265  -0.538  -1.027  1.00  0.00     0.083 A 
ATOM     20  C   UNL     1       1.393  -1.339  -0.787  1.00  0.00     0.012 A 
ATOM     21  C   UNL     1      -0.265   0.387  -0.805  1.00  0.00     0.061 A 
ATOM     22  Cl  UNL     1      -2.914  -0.017  -1.181  1.00  0.00    -0.080 Cl
ATOM     23  C   UNL     1       1.059  -0.018  -0.687  1.00  0.00     0.023 A 
ATOM     24  Cl  UNL     1      -0.664   2.071  -0.673  1.00  0.00    -0.083 Cl
ENDBRANCH  11  12
ENDBRANCH  10  11
ENDBRANCH   7  10
ENDBRANCH   1   7
BRANCH   1  25
ATOM     25  C   UNL     1       4.502  -4.380  -4.157  1.00  0.00     0.217 A 
ATOM     26  N   UNL     1       5.513  -3.699  -3.577  1.00  0.00    -0.191 N 
ATOM     27  N   UNL     1       4.021  -3.624  -5.110  1.00  0.00    -0.107 NA
ATOM     28  N   UNL     1       5.580  -2.476  -4.268  1.00  0.00    -0.040 NA
ATOM     29  N   UNL     1       4.655  -2.508  -5.165  1.00  0.00    -0.023 NA
BRANCH  26  30
ATOM     30  C   UNL     1       6.324  -4.121  -2.511  1.00  0.00     0.069 A 
ATOM     31  C   UNL     1       7.703  -3.983  -2.592  1.00  0.00     0.032 A 
ATOM     32  C   UNL     1       5.746  -4.670  -1.375  1.00  0.00     0.032 A 
ATOM     33  C   UNL     1       8.500  -4.399  -1.544  1.00  0.00     0.048 A 
ATOM     34  C   UNL     1       6.544  -5.090  -0.330  1.00  0.00     0.048 A 
ATOM     35  C   UNL     1       7.923  -4.953  -0.410  1.00  0.00     0.119 A 
BRANCH  35  36
ATOM     36  O   UNL     1       8.708  -5.361   0.622  1.00  0.00    -0.497 OA
ATOM     37  C   UNL     1       8.060  -6.036   1.702  1.00  0.00     0.278 C 
ENDBRANCH  35  36
ENDBRANCH  26  30
ENDBRANCH   1  25
TORSDOF 7
