REMARK SMILES Cc1[nH]nc2c1[C@@H](c1cc(CSc3nnnn3C)cs1)C(C#N)=C(N)O2
REMARK SMILES IDX 8 1 9 2 10 3 19 4 20 5 7 6 1 7 2 8 3 9 6 10 4 11 5 13 21 14
REMARK SMILES IDX 26 15 24 16 22 17 23 18 25 19 11 22 12 23 13 24 17 25 14 26
REMARK SMILES IDX 16 27 18 28 15 29
REMARK H PARENT 3 12 25 20 25 21
REMARK Flexibility Score: inf
ROOT
ATOM      1  C   UNL     1       3.100   1.788  -1.377  1.00  0.00     0.018 A 
ATOM      2  C   UNL     1       4.225   2.469  -1.706  1.00  0.00     0.021 A 
ATOM      3  C   UNL     1       4.604   2.537  -3.033  1.00  0.00    -0.027 A 
ATOM      4  C   UNL     1       3.833   1.929  -3.969  1.00  0.00     0.069 A 
ATOM      5  S   UNL     1       2.530   1.224  -2.973  1.00  0.00    -0.148 S 
ENDROOT
BRANCH   1   6
ATOM      6  C   UNL     1       2.486   1.568  -0.018  1.00  0.00     0.113 C 
ATOM      7  C   UNL     1       4.859  -0.452   0.682  1.00  0.00     0.066 C 
ATOM      8  C   UNL     1       3.391  -0.775   0.567  1.00  0.00     0.040 A 
ATOM      9  N   UNL     1       2.825  -1.991   0.744  1.00  0.00    -0.279 N 
ATOM     10  C   UNL     1       2.410   0.091   0.273  1.00  0.00     0.050 A 
ATOM     11  N   UNL     1       1.441  -1.861   0.549  1.00  0.00    -0.136 NA
ATOM     12  H   UNL     1       3.323  -2.862   0.980  1.00  0.00     0.190 HD
ATOM     13  C   UNL     1       1.188  -0.616   0.268  1.00  0.00     0.244 A 
ATOM     14  C   UNL     1       1.085   2.124   0.003  1.00  0.00     0.102 C 
ATOM     15  O   UNL     1       0.002  -0.004   0.002  1.00  0.00    -0.420 OA
ATOM     16  C   UNL     1      -0.016   1.344   0.009  1.00  0.00     0.207 C 
BRANCH  14  17
ATOM     17  C   UNL     1       0.914   3.546   0.017  1.00  0.00     0.101 C 
ATOM     18  N   UNL     1       0.779   4.673   0.028  1.00  0.00    -0.193 NA
ENDBRANCH  14  17
BRANCH  16  19
ATOM     19  N   UNL     1      -1.240   1.966   0.018  1.00  0.00    -0.369 N 
ATOM     20  H   UNL     1      -2.119   1.429   0.020  1.00  0.00     0.159 HD
ATOM     21  H   UNL     1      -1.275   2.995   0.024  1.00  0.00     0.159 HD
ENDBRANCH  16  19
ENDBRANCH   1   6
BRANCH   3  22
ATOM     22  C   UNL     1       5.851   3.282  -3.436  1.00  0.00     0.114 C 
BRANCH  22  23
ATOM     23  S   UNL     1       5.438   5.011  -3.777  1.00  0.00    -0.080 SA
BRANCH  23  24
ATOM     24  C   UNL     1       7.031   5.626  -4.210  1.00  0.00     0.209 A 
ATOM     25  N   UNL     1       7.331   6.895  -4.575  1.00  0.00    -0.224 N 
ATOM     26  N   UNL     1       8.151   4.938  -4.246  1.00  0.00    -0.102 NA
ATOM     27  N   UNL     1       8.716   6.891  -4.816  1.00  0.00    -0.045 NA
ATOM     28  C   UNL     1       6.411   8.029  -4.690  1.00  0.00     0.179 C 
ATOM     29  N   UNL     1       9.130   5.689  -4.602  1.00  0.00    -0.023 NA
ENDBRANCH  23  24
ENDBRANCH  22  23
ENDBRANCH   3  22
TORSDOF 6
