REMARK SMILES CCOC(=O)c1ccc(NN2C(=O)c3ccccc3N[C@@H]2c2ccccc2)cc1
REMARK SMILES IDX 6 1 7 2 8 3 9 4 28 5 29 6 4 7 5 8 3 9 2 10 1 11 10 12 11 14
REMARK SMILES IDX 12 15 21 16 14 17 13 18 20 19 19 20 15 21 18 23 16 24 17 25
REMARK SMILES IDX 22 26 27 27 23 28 26 29 24 30 25 31
REMARK H PARENT 10 13 20 22
REMARK Flexibility Score: inf
ROOT
ATOM      1  C   UNL     1       4.591   8.275  -0.891  1.00  0.00     0.060 A 
ATOM      2  C   UNL     1       5.379   7.215  -1.351  1.00  0.00     0.018 A 
ATOM      3  C   UNL     1       5.018   5.923  -1.073  1.00  0.00     0.028 A 
ATOM      4  C   UNL     1       3.867   5.664  -0.333  1.00  0.00     0.054 A 
ATOM      5  C   UNL     1       3.077   6.716   0.122  1.00  0.00     0.028 A 
ATOM      6  C   UNL     1       3.436   8.011  -0.147  1.00  0.00     0.018 A 
ENDROOT
BRANCH   1   7
ATOM      7  C   UNL     1       4.977   9.666  -1.188  1.00  0.00     0.338 C 
ATOM      8  O   UNL     1       5.980   9.893  -1.834  1.00  0.00    -0.246 OA
BRANCH   7   9
ATOM      9  O   UNL     1       4.216  10.686  -0.743  1.00  0.00    -0.462 OA
BRANCH   9  10
ATOM     10  C   UNL     1       4.657  12.029  -1.074  1.00  0.00     0.230 C 
ATOM     11  C   UNL     1       3.675  13.046  -0.488  1.00  0.00     0.049 C 
ENDBRANCH   9  10
ENDBRANCH   7   9
ENDBRANCH   1   7
BRANCH   4  12
ATOM     12  N   UNL     1       3.503   4.352  -0.053  1.00  0.00    -0.294 N 
ATOM     13  H   UNL     1       4.084   3.572  -0.393  1.00  0.00     0.188 HD
BRANCH  12  14
ATOM     14  N   UNL     1       2.346   4.089   0.691  1.00  0.00    -0.225 N 
ATOM     15  C   UNL     1       2.353   4.300   2.024  1.00  0.00     0.276 C 
ATOM     16  C   UNL     1       1.151   3.592   0.010  1.00  0.00     0.232 C 
ATOM     17  C   UNL     1       1.111   4.103   2.792  1.00  0.00     0.065 A 
ATOM     18  O   UNL     1       3.374   4.649   2.585  1.00  0.00    -0.267 OA
ATOM     19  N   UNL     1      -0.059   4.059   0.699  1.00  0.00    -0.359 N 
ATOM     20  C   UNL     1      -0.101   3.989   2.087  1.00  0.00     0.049 A 
ATOM     21  C   UNL     1       1.112   4.027   4.182  1.00  0.00     0.016 A 
ATOM     22  H   UNL     1      -0.859   4.428   0.166  1.00  0.00     0.163 HD
ATOM     23  C   UNL     1      -1.287   3.809   2.776  1.00  0.00     0.026 A 
ATOM     24  C   UNL     1      -0.079   3.845   4.854  1.00  0.00     0.001 A 
ATOM     25  C   UNL     1      -1.272   3.738   4.156  1.00  0.00     0.002 A 
BRANCH  16  26
ATOM     26  C   UNL     1       1.171   2.086   0.002  1.00  0.00    -0.004 A 
ATOM     27  C   UNL     1       2.377   1.411  -0.015  1.00  0.00     0.008 A 
ATOM     28  C   UNL     1      -0.017   1.378   0.010  1.00  0.00     0.008 A 
ATOM     29  C   UNL     1       2.396   0.029  -0.022  1.00  0.00     0.000 A 
ATOM     30  C   UNL     1       0.002  -0.004   0.002  1.00  0.00     0.000 A 
ATOM     31  C   UNL     1       1.208  -0.679  -0.013  1.00  0.00     0.000 A 
ENDBRANCH  16  26
ENDBRANCH  12  14
ENDBRANCH   4  12
TORSDOF 6
