REMARK SMILES Cc1ccc(S(=O)(=O)NC(C)(C)C)cc1C(=O)NCC(C)(C)[N@@H+]1CCc2ccccc2C1
REMARK SMILES IDX 1 1 2 2 3 3 4 4 5 5 14 6 15 7 16 8 17 9 18 10 19 12 20 13
REMARK SMILES IDX 21 14 22 15 23 16 32 17 24 18 31 20 25 21 26 22 30 23 27 24
REMARK SMILES IDX 29 25 28 26 6 27 7 28 8 29 9 30 10 32 11 33 12 34 13 35
REMARK H PARENT 18 11 23 19 9 31
REMARK Flexibility Score: inf
ROOT
ATOM      1  C   UNL     1       2.523   1.198  -1.881  1.00  0.00     0.045 C 
ATOM      2  C   UNL     1       1.162   1.713  -1.488  1.00  0.00    -0.038 A 
ATOM      3  C   UNL     1       0.042   0.935  -1.699  1.00  0.00     0.005 A 
ATOM      4  C   UNL     1      -1.209   1.409  -1.345  1.00  0.00     0.022 A 
ATOM      5  C   UNL     1      -1.345   2.659  -0.767  1.00  0.00     0.083 A 
ATOM      6  C   UNL     1      -0.233   3.446  -0.550  1.00  0.00     0.035 A 
ATOM      7  C   UNL     1       1.032   2.977  -0.910  1.00  0.00     0.044 A 
ENDROOT
BRANCH   7   8
ATOM      8  C   UNL     1       2.228   3.815  -0.681  1.00  0.00     0.251 C 
ATOM      9  O   UNL     1       3.308   3.463  -1.113  1.00  0.00    -0.269 OA
ATOM     10  N   UNL     1       2.120   4.969   0.006  1.00  0.00    -0.346 N 
ATOM     11  H   UNL     1       1.204   5.267   0.371  1.00  0.00     0.164 HD
BRANCH  10  12
ATOM     12  C   UNL     1       3.305   5.800   0.233  1.00  0.00     0.184 C 
BRANCH  12  13
ATOM     13  C   UNL     1       2.911   7.044   1.032  1.00  0.00     0.110 C 
ATOM     14  C   UNL     1       4.148   7.911   1.269  1.00  0.00     0.081 C 
ATOM     15  C   UNL     1       1.869   7.845   0.248  1.00  0.00     0.081 C 
BRANCH  13  16
ATOM     16  N   UNL     1       2.344   6.636   2.324  1.00  0.00    -0.325 N 
ATOM     17  C   UNL     1       3.291   5.805   3.075  1.00  0.00     0.299 C 
ATOM     18  C   UNL     1       1.952   7.809   3.122  1.00  0.00     0.267 C 
ATOM     19  H   UNL     1       1.501   6.076   2.133  1.00  0.00     0.348 HD
ATOM     20  C   UNL     1       2.739   5.475   4.436  1.00  0.00     0.010 A 
ATOM     21  C   UNL     1       1.051   7.339   4.265  1.00  0.00     0.097 C 
ATOM     22  C   UNL     1       1.700   6.190   4.993  1.00  0.00    -0.034 A 
ATOM     23  C   UNL     1       3.303   4.421   5.140  1.00  0.00     0.010 A 
ATOM     24  C   UNL     1       1.228   5.854   6.253  1.00  0.00     0.004 A 
ATOM     25  C   UNL     1       2.831   4.086   6.393  1.00  0.00     0.001 A 
ATOM     26  C   UNL     1       1.790   4.805   6.952  1.00  0.00     0.000 A 
ENDBRANCH  13  16
ENDBRANCH  12  13
ENDBRANCH  10  12
ENDBRANCH   7   8
BRANCH   5  27
ATOM     27  S   UNL     1      -2.942   3.249  -0.313  1.00  0.00     0.241 S 
ATOM     28  O   UNL     1      -3.665   2.128   0.176  1.00  0.00    -0.207 OA
ATOM     29  O   UNL     1      -2.736   4.420   0.465  1.00  0.00    -0.207 OA
BRANCH  27  30
ATOM     30  N   UNL     1      -3.699   3.731  -1.704  1.00  0.00    -0.206 NA
ATOM     31  H   UNL     1      -4.531   3.225  -2.039  1.00  0.00     0.141 HD
BRANCH  30  32
ATOM     32  C   UNL     1      -3.186   4.877  -2.458  1.00  0.00     0.025 C 
ATOM     33  C   UNL     1      -1.690   4.689  -2.716  1.00  0.00     0.028 C 
ATOM     34  C   UNL     1      -3.925   4.981  -3.794  1.00  0.00     0.028 C 
ATOM     35  C   UNL     1      -3.408   6.159  -1.652  1.00  0.00     0.028 C 
ENDBRANCH  30  32
ENDBRANCH  27  30
ENDBRANCH   5  27
TORSDOF 7
