REMARK SMILES ON1C(CSc2nc3ccccc3[nH]2)=C(CSc2nc3ccccc3[nH]2)N(O)c2ccccc21
REMARK SMILES IDX 3 1 15 2 27 3 29 4 30 5 31 6 32 7 33 8 34 9 2 10 4 11 5 12
REMARK SMILES IDX 6 13 11 14 12 15 10 16 13 17 9 18 8 19 14 20 7 21 1 23 16 25
REMARK SMILES IDX 17 26 18 27 19 28 26 29 20 30 25 31 21 33 24 34 22 35 23 36
REMARK SMILES IDX 28 37
REMARK H PARENT 14 22 1 24 26 32 28 38
REMARK Flexibility Score: inf
ROOT
ATOM      1  C   UNL     1       4.742   0.140   0.573  1.00  0.00     0.080 C 
ATOM      2  C   UNL     1       4.628   1.461   0.618  1.00  0.00     0.080 C 
ATOM      3  N   UNL     1       3.515   2.082   0.010  1.00  0.00    -0.224 N 
ATOM      4  C   UNL     1       2.337   1.325  -0.128  1.00  0.00     0.095 A 
ATOM      5  C   UNL     1       1.094   1.916  -0.215  1.00  0.00     0.031 A 
ATOM      6  C   UNL     1      -0.034   1.120  -0.349  1.00  0.00     0.002 A 
ATOM      7  C   UNL     1       0.084  -0.255  -0.397  1.00  0.00     0.002 A 
ATOM      8  C   UNL     1       1.333  -0.854  -0.310  1.00  0.00     0.031 A 
ATOM      9  C   UNL     1       2.457  -0.067  -0.176  1.00  0.00     0.095 A 
ATOM     10  N   UNL     1       3.748  -0.619  -0.083  1.00  0.00    -0.224 N 
ENDROOT
BRANCH   1  11
ATOM     11  C   UNL     1       5.921  -0.544   1.215  1.00  0.00     0.136 C 
BRANCH  11  12
ATOM     12  S   UNL     1       5.403  -1.302   2.775  1.00  0.00    -0.082 SA
BRANCH  12  13
ATOM     13  C   UNL     1       6.931  -2.009   3.294  1.00  0.00     0.166 A 
ATOM     14  C   UNL     1      10.554  -4.035   5.131  1.00  0.00     0.002 A 
ATOM     15  C   UNL     1       9.215  -3.822   5.386  1.00  0.00     0.028 A 
ATOM     16  C   UNL     1      11.139  -3.530   3.980  1.00  0.00     0.002 A 
ATOM     17  C   UNL     1       8.447  -3.099   4.486  1.00  0.00     0.066 A 
ATOM     18  C   UNL     1      10.392  -2.810   3.075  1.00  0.00     0.030 A 
ATOM     19  C   UNL     1       9.035  -2.585   3.318  1.00  0.00     0.089 A 
ATOM     20  N   UNL     1       7.115  -2.720   4.446  1.00  0.00    -0.333 N 
ATOM     21  N   UNL     1       8.058  -1.936   2.631  1.00  0.00    -0.223 NA
ATOM     22  H   UNL     1       6.398  -2.935   5.154  1.00  0.00     0.169 HD
ENDBRANCH  12  13
ENDBRANCH  11  12
ENDBRANCH   1  11
BRANCH  10  23
ATOM     23  O   UNL     1       4.040  -1.893  -0.628  1.00  0.00    -0.284 OA
ATOM     24  H   UNL     1       4.404  -2.410   0.134  1.00  0.00     0.246 HD
ENDBRANCH  10  23
BRANCH   2  25
ATOM     25  C   UNL     1       5.676   2.291   1.313  1.00  0.00     0.136 C 
BRANCH  25  26
ATOM     26  S   UNL     1       6.737   3.082   0.078  1.00  0.00    -0.082 SA
BRANCH  26  27
ATOM     27  C   UNL     1       7.837   3.962   1.136  1.00  0.00     0.166 A 
ATOM     28  N   UNL     1       7.784   3.961   2.446  1.00  0.00    -0.223 NA
ATOM     29  N   UNL     1       8.869   4.751   0.715  1.00  0.00    -0.333 N 
ATOM     30  C   UNL     1       8.780   4.739   2.943  1.00  0.00     0.089 A 
ATOM     31  C   UNL     1       9.487   5.258   1.846  1.00  0.00     0.066 A 
ATOM     32  H   UNL     1       9.138   4.935  -0.262  1.00  0.00     0.169 HD
ATOM     33  C   UNL     1       9.176   5.079   4.240  1.00  0.00     0.030 A 
ATOM     34  C   UNL     1      10.567   6.102   2.055  1.00  0.00     0.028 A 
ATOM     35  C   UNL     1      10.251   5.918   4.428  1.00  0.00     0.002 A 
ATOM     36  C   UNL     1      10.945   6.428   3.341  1.00  0.00     0.002 A 
ENDBRANCH  26  27
ENDBRANCH  25  26
ENDBRANCH   2  25
BRANCH   3  37
ATOM     37  O   UNL     1       3.582   3.421  -0.445  1.00  0.00    -0.284 OA
ATOM     38  H   UNL     1       4.350   3.431  -1.069  1.00  0.00     0.246 HD
ENDBRANCH   3  37
TORSDOF 8
