REMARK SMILES O=C(c1ccc2ccccc2c1)N1CCN(Cn2nc(N3CCCCC3)n(C3CC3)c2=S)CC1
REMARK SMILES IDX 17 1 16 2 2 3 1 4 13 5 34 6 14 7 33 8 15 9 3 10 8 11 7 12
REMARK SMILES IDX 9 13 6 14 10 15 11 16 5 17 12 18 4 19 18 20 19 21 31 22
REMARK SMILES IDX 20 23 32 24 27 25 21 26 26 27 22 28 25 29 23 30 24 31 28 32
REMARK SMILES IDX 30 33 29 34
REMARK H PARENT
REMARK Flexibility Score: inf
ROOT
ATOM      1  C   UNL     1       5.535  10.222  -1.643  1.00  0.00     0.234 C 
ENDROOT
BRANCH   1   2
ATOM      2  N   UNL     1       4.539   9.678  -0.711  1.00  0.00    -0.281 NA
ATOM      3  C   UNL     1       1.053   7.766   0.178  1.00  0.00     0.253 C 
ATOM      4  O   UNL     1       0.018   8.393   0.062  1.00  0.00    -0.269 OA
ATOM      5  N   UNL     1       2.234   8.414   0.213  1.00  0.00    -0.336 N 
ATOM      6  C   UNL     1       2.288   9.884   0.231  1.00  0.00     0.135 C 
ATOM      7  C   UNL     1       3.502   7.670   0.241  1.00  0.00     0.135 C 
ATOM      8  C   UNL     1       3.243  10.349  -0.873  1.00  0.00     0.108 C 
ATOM      9  C   UNL     1       4.410   8.223  -0.870  1.00  0.00     0.108 C 
BRANCH   3  10
ATOM     10  C   UNL     1       1.015   6.292   0.280  1.00  0.00     0.040 A 
ATOM     11  C   UNL     1       1.799   1.466   1.301  1.00  0.00     0.001 A 
ATOM     12  C   UNL     1       0.874   2.116   0.542  1.00  0.00     0.009 A 
ATOM     13  C   UNL     1       2.784   2.171   1.990  1.00  0.00     0.001 A 
ATOM     14  C   UNL     1       0.911   3.517   0.446  1.00  0.00    -0.018 A 
ATOM     15  C   UNL     1       2.856   3.528   1.917  1.00  0.00     0.009 A 
ATOM     16  C   UNL     1       1.916   4.233   1.144  1.00  0.00    -0.018 A 
ATOM     17  C   UNL     1      -0.032   4.216  -0.329  1.00  0.00     0.009 A 
ATOM     18  C   UNL     1       1.958   5.633   1.051  1.00  0.00     0.022 A 
ATOM     19  C   UNL     1       0.023   5.570  -0.407  1.00  0.00     0.014 A 
ENDBRANCH   3  10
ENDBRANCH   1   2
BRANCH   1  20
ATOM     20  N   UNL     1       6.734   9.380  -1.624  1.00  0.00    -0.222 N 
ATOM     21  N   UNL     1       6.982   8.271  -2.443  1.00  0.00    -0.132 NA
ATOM     22  C   UNL     1       7.805   9.534  -0.818  1.00  0.00     0.200 A 
ATOM     23  C   UNL     1       8.149   7.790  -2.127  1.00  0.00     0.226 A 
ATOM     24  S   UNL     1       8.011  10.749   0.371  1.00  0.00    -0.038 S 
ATOM     25  N   UNL     1       8.682   8.555  -1.116  1.00  0.00    -0.283 N 
BRANCH  23  26
ATOM     26  N   UNL     1       8.756   6.689  -2.714  1.00  0.00    -0.341 N 
ATOM     27  C   UNL     1       7.903   6.114  -3.761  1.00  0.00     0.119 C 
ATOM     28  C   UNL     1      10.082   7.037  -3.240  1.00  0.00     0.119 C 
ATOM     29  C   UNL     1       8.534   4.821  -4.284  1.00  0.00     0.022 C 
ATOM     30  C   UNL     1      10.779   5.772  -3.747  1.00  0.00     0.022 C 
ATOM     31  C   UNL     1       9.926   5.129  -4.844  1.00  0.00     0.004 C 
ENDBRANCH  23  26
BRANCH  25  32
ATOM     32  C   UNL     1       9.983   8.345  -0.476  1.00  0.00     0.093 C 
ATOM     33  C   UNL     1      10.920   9.550  -0.369  1.00  0.00     0.028 C 
ATOM     34  C   UNL     1      10.219   9.011   0.881  1.00  0.00     0.028 C 
ENDBRANCH  25  32
ENDBRANCH   1  20
TORSDOF 5
