REMARK SMILES CCOC(=O)c1c(NC(=O)[C@H](C)Sc2nc3sccc3c(=O)[nH]2)sc2c1CCCC2
REMARK SMILES IDX 6 1 26 2 25 3 24 4 7 5 30 6 29 7 28 8 27 9 4 10 5 11 3 12
REMARK SMILES IDX 2 13 1 14 8 15 9 16 10 18 11 19 12 20 13 21 14 22 15 23
REMARK SMILES IDX 23 24 16 25 21 26 20 28 17 29 22 30 19 31 18 32
REMARK H PARENT 8 17 23 27
REMARK Flexibility Score: inf
ROOT
ATOM      1  C   UNL     1       2.232   0.793  -0.015  1.00  0.00     0.098 A 
ATOM      2  C   UNL     1       1.312  -0.332  -0.012  1.00  0.00    -0.017 A 
ATOM      3  C   UNL     1       0.002  -0.004   0.002  1.00  0.00     0.011 A 
ATOM      4  S   UNL     1      -0.022   1.766   0.012  1.00  0.00    -0.122 S 
ATOM      5  C   UNL     1       1.684   2.070  -0.003  1.00  0.00     0.110 A 
ATOM      6  C   UNL     1      -1.164  -0.944   0.007  1.00  0.00     0.047 C 
ATOM      7  C   UNL     1      -0.661  -2.341  -0.384  1.00  0.00     0.006 C 
ATOM      8  C   UNL     1       0.589  -2.663   0.440  1.00  0.00     0.005 C 
ATOM      9  C   UNL     1       1.756  -1.789  -0.024  1.00  0.00     0.038 C 
ENDROOT
BRANCH   1  10
ATOM     10  C   UNL     1       3.682   0.590  -0.030  1.00  0.00     0.341 C 
ATOM     11  O   UNL     1       4.274   0.511  -1.090  1.00  0.00    -0.246 OA
BRANCH  10  12
ATOM     12  O   UNL     1       4.361   0.489   1.130  1.00  0.00    -0.462 OA
BRANCH  12  13
ATOM     13  C   UNL     1       5.796   0.287   1.039  1.00  0.00     0.230 C 
ATOM     14  C   UNL     1       6.389   0.198   2.446  1.00  0.00     0.049 C 
ENDBRANCH  12  13
ENDBRANCH  10  12
ENDBRANCH   1  10
BRANCH   5  15
ATOM     15  N   UNL     1       2.342   3.289  -0.003  1.00  0.00    -0.316 N 
ATOM     16  C   UNL     1       1.634   4.437   0.009  1.00  0.00     0.238 C 
ATOM     17  H   UNL     1       3.371   3.319  -0.013  1.00  0.00     0.170 HD
ATOM     18  O   UNL     1       0.422   4.401   0.021  1.00  0.00    -0.273 OA
BRANCH  16  19
ATOM     19  C   UNL     1       2.350   5.763   0.009  1.00  0.00     0.141 C 
ATOM     20  C   UNL     1       2.826   6.086   1.426  1.00  0.00     0.030 C 
BRANCH  19  21
ATOM     21  S   UNL     1       1.219   7.058  -0.557  1.00  0.00    -0.075 SA
BRANCH  21  22
ATOM     22  C   UNL     1       2.324   8.430  -0.605  1.00  0.00     0.170 A 
ATOM     23  N   UNL     1       3.584   8.261  -0.259  1.00  0.00    -0.213 NA
ATOM     24  N   UNL     1       1.862   9.653  -0.995  1.00  0.00    -0.301 N 
ATOM     25  C   UNL     1       4.441   9.275  -0.290  1.00  0.00     0.131 A 
ATOM     26  C   UNL     1       2.676  10.724  -1.043  1.00  0.00     0.260 A 
ATOM     27  H   UNL     1       0.872   9.759  -1.257  1.00  0.00     0.172 HD
ATOM     28  C   UNL     1       4.051  10.571  -0.678  1.00  0.00     0.077 A 
ATOM     29  S   UNL     1       6.166   9.458   0.084  1.00  0.00    -0.124 S 
ATOM     30  O   UNL     1       2.247  11.810  -1.394  1.00  0.00    -0.269 OA
ATOM     31  C   UNL     1       5.111  11.564  -0.650  1.00  0.00     0.028 A 
ATOM     32  C   UNL     1       6.343  11.196  -0.270  1.00  0.00     0.068 A 
ENDBRANCH  21  22
ENDBRANCH  19  21
ENDBRANCH  16  19
ENDBRANCH   5  15
TORSDOF 7
