REMARK SMILES CSc1ccc(S(=O)(=O)NCCSCc2ccc(Cl)cc2)cc1C(=O)N1CCCCCC1
REMARK SMILES IDX 7 1 8 2 9 3 6 4 3 5 23 6 4 7 22 8 5 9 2 10 1 11 24 12 25 13
REMARK SMILES IDX 26 14 32 15 31 16 30 17 27 19 28 20 29 21 10 23 11 25 12 26
REMARK SMILES IDX 13 27 14 28 15 29 21 30 16 31 20 32 17 33 18 34 19 35
REMARK H PARENT 10 24
REMARK Flexibility Score: 80.00
ROOT
ATOM      1  S   UNL     1      -0.065   1.364  -0.048  1.00  0.00     0.240 S 
ATOM      2  O   UNL     1      -0.083  -0.057  -0.070  1.00  0.00    -0.207 OA
ATOM      3  O   UNL     1       1.143   2.111  -0.070  1.00  0.00    -0.207 OA
ENDROOT
BRANCH   1   4
ATOM      4  C   UNL     1      -0.935   1.856   1.404  1.00  0.00     0.083 A 
ATOM      5  C   UNL     1      -2.295   2.651   3.692  1.00  0.00     0.020 A 
ATOM      6  C   UNL     1      -2.552   1.395   3.119  1.00  0.00     0.054 A 
ATOM      7  C   UNL     1      -1.356   3.493   3.108  1.00  0.00     0.017 A 
ATOM      8  C   UNL     1      -1.861   1.007   1.968  1.00  0.00     0.036 A 
ATOM      9  C   UNL     1      -0.678   3.093   1.975  1.00  0.00     0.023 A 
BRANCH   5  10
ATOM     10  S   UNL     1      -3.157   3.156   5.143  1.00  0.00    -0.129 SA
ATOM     11  C   UNL     1      -2.497   4.809   5.492  1.00  0.00     0.091 C 
ENDBRANCH   5  10
BRANCH   6  12
ATOM     12  C   UNL     1      -3.545   0.491   3.728  1.00  0.00     0.255 C 
ATOM     13  O   UNL     1      -3.370   0.065   4.853  1.00  0.00    -0.269 OA
ATOM     14  N   UNL     1      -4.647   0.137   3.037  1.00  0.00    -0.339 N 
BRANCH  14  15
ATOM     15  C   UNL     1      -5.663  -0.698   3.705  1.00  0.00     0.120 C 
BRANCH  15  16
ATOM     16  C   UNL     1      -7.096  -0.227   3.396  1.00  0.00     0.022 C 
BRANCH  16  17
ATOM     17  C   UNL     1      -7.161   1.280   3.411  1.00  0.00     0.002 CG0
ATOM     18  G   UNL     1      -6.917   1.811   2.002  1.00  0.00     0.000 G0
ENDBRANCH  16  17
ENDBRANCH  15  16
ENDBRANCH  14  15
BRANCH  14  19
ATOM     19  C   UNL     1      -4.787   0.597   1.673  1.00  0.00     0.120 C 
BRANCH  19  20
ATOM     20  C   UNL     1      -5.497   1.966   1.650  1.00  0.00     0.022 C 
BRANCH  20  21
ATOM     21  C   UNL     1      -6.917   1.811   2.002  1.00  0.00     0.002 CG0
ATOM     22  G   UNL     1      -7.161   1.280   3.411  1.00  0.00     0.000 G0
ENDBRANCH  20  21
ENDBRANCH  19  20
ENDBRANCH  14  19
ENDBRANCH   6  12
ENDBRANCH   1   4
BRANCH   1  23
ATOM     23  N   UNL     1      -0.958   1.869  -1.348  1.00  0.00    -0.210 NA
ATOM     24  H   UNL     1      -1.376   1.177  -1.986  1.00  0.00     0.141 HD
BRANCH  23  25
ATOM     25  C   UNL     1      -1.153   3.301  -1.591  1.00  0.00     0.109 C 
BRANCH  25  26
ATOM     26  C   UNL     1      -1.672   3.510  -3.015  1.00  0.00     0.086 C 
BRANCH  26  27
ATOM     27  S   UNL     1      -1.914   5.283  -3.316  1.00  0.00    -0.156 SA
BRANCH  27  28
ATOM     28  C   UNL     1      -2.523   5.359  -5.023  1.00  0.00     0.105 C 
BRANCH  28  29
ATOM     29  C   UNL     1      -2.767   6.796  -5.405  1.00  0.00    -0.038 A 
ATOM     30  C   UNL     1      -1.753   7.541  -5.978  1.00  0.00     0.006 A 
ATOM     31  C   UNL     1      -4.007   7.367  -5.188  1.00  0.00     0.006 A 
ATOM     32  C   UNL     1      -1.977   8.859  -6.329  1.00  0.00     0.021 A 
ATOM     33  C   UNL     1      -4.231   8.687  -5.533  1.00  0.00     0.021 A 
ATOM     34  C   UNL     1      -3.216   9.433  -6.106  1.00  0.00     0.041 A 
ATOM     35  Cl  UNL     1      -3.498  11.088  -6.546  1.00  0.00    -0.084 Cl
ENDBRANCH  28  29
ENDBRANCH  27  28
ENDBRANCH  26  27
ENDBRANCH  25  26
ENDBRANCH  23  25
ENDBRANCH   1  23
TORSDOF 9
