REMARK SMILES COC1=C/C(=C/c2c(N)n3nc(C4CCCCC4)sc3nc2=O)C=CC1=O
REMARK SMILES IDX 3 1 4 2 5 3 6 4 24 5 25 6 26 7 27 8 2 9 1 10 7 11 22 12 8 13
REMARK SMILES IDX 21 14 23 15 10 16 20 17 11 18 19 19 12 20 9 21 13 24 18 25
REMARK SMILES IDX 14 26 17 27 15 28 16 29
REMARK H PARENT 9 22 9 23
REMARK Flexibility Score: inf
ROOT
ATOM      1  C   UNL     1       0.699 -10.533  -5.188  1.00  0.00     0.166 C 
ATOM      2  C   UNL     1      -0.119  -9.534  -4.759  1.00  0.00     0.058 C 
ATOM      3  C   UNL     1       0.381  -8.539  -3.891  1.00  0.00    -0.021 C 
ATOM      4  C   UNL     1      -0.460  -7.502  -3.451  1.00  0.00     0.026 C 
ATOM      5  C   UNL     1       1.723  -8.590  -3.460  1.00  0.00     0.012 C 
ATOM      6  C   UNL     1       2.536  -9.592  -3.885  1.00  0.00     0.056 C 
ATOM      7  C   UNL     1       2.042 -10.580  -4.755  1.00  0.00     0.220 C 
ATOM      8  O   UNL     1       2.777 -11.482  -5.136  1.00  0.00    -0.286 OA
ENDROOT
BRANCH   1   9
ATOM      9  O   UNL     1       0.222 -11.489  -6.029  1.00  0.00    -0.493 OA
ATOM     10  C   UNL     1      -1.147 -11.380  -6.427  1.00  0.00     0.278 C 
ENDBRANCH   1   9
BRANCH   4  11
ATOM     11  C   UNL     1       0.034  -6.521  -2.587  1.00  0.00     0.085 A 
ATOM     12  C   UNL     1       0.764  -6.893  -1.359  1.00  0.00     0.283 A 
ATOM     13  C   UNL     1      -0.153  -5.157  -2.865  1.00  0.00     0.141 A 
ATOM     14  N   UNL     1       1.210  -5.902  -0.576  1.00  0.00    -0.179 NA
ATOM     15  O   UNL     1       0.955  -8.063  -1.067  1.00  0.00    -0.267 OA
ATOM     16  N   UNL     1       0.344  -4.203  -1.996  1.00  0.00    -0.188 N 
ATOM     17  C   UNL     1       1.009  -4.646  -0.883  1.00  0.00     0.217 A 
ATOM     18  N   UNL     1       0.237  -2.821  -2.138  1.00  0.00    -0.158 NA
ATOM     19  S   UNL     1       1.466  -3.123  -0.079  1.00  0.00    -0.079 S 
ATOM     20  C   UNL     1       0.739  -2.004  -1.265  1.00  0.00     0.120 A 
BRANCH  13  21
ATOM     21  N   UNL     1      -0.823  -4.775  -3.988  1.00  0.00    -0.383 N 
ATOM     22  H   UNL     1      -1.193  -5.487  -4.634  1.00  0.00     0.158 HD
ATOM     23  H   UNL     1      -0.959  -3.775  -4.192  1.00  0.00     0.158 HD
ENDBRANCH  13  21
BRANCH  20  24
ATOM     24  C   UNL     1       0.718  -0.497  -1.257  1.00  0.00     0.051 C 
ATOM     25  C   UNL     1       2.154   0.032  -1.268  1.00  0.00     0.011 C 
ATOM     26  C   UNL     1       0.002  -0.004   0.002  1.00  0.00     0.011 C 
ATOM     27  C   UNL     1       2.133   1.562  -1.259  1.00  0.00     0.001 C 
ATOM     28  C   UNL     1      -0.019   1.526   0.010  1.00  0.00     0.001 C 
ATOM     29  C   UNL     1       1.417   2.055  -0.000  1.00  0.00     0.000 C 
ENDBRANCH  20  24
ENDBRANCH   4  11
TORSDOF 4
