REMARK SMILES O=C(N/N=C/c1ccc(O)cc1O)[C@H]1[C@@H](c2ccccc2)[C@H](C(=O)N2CCOCC2)[C@@H]1c1ccccc1
REMARK SMILES IDX 2 1 1 2 3 3 14 5 15 6 22 7 31 8 16 9 19 10 20 11 18 12 21 13
REMARK SMILES IDX 17 14 23 15 24 16 25 17 30 18 26 19 29 20 27 21 28 22 32 23
REMARK SMILES IDX 37 24 33 25 36 26 34 27 35 28 4 29 5 30 6 31 12 32 7 33
REMARK SMILES IDX 11 34 8 35 9 36 13 37 10 39
REMARK H PARENT 3 4 13 38 10 40
REMARK Flexibility Score: inf
ROOT
ATOM      1  C   UNL     1       3.433   0.000   0.294  1.00  0.00     0.244 C 
ATOM      2  O   UNL     1       3.269  -1.040  -0.309  1.00  0.00    -0.273 OA
ATOM      3  N   UNL     1       4.677   0.481   0.484  1.00  0.00    -0.247 N 
ATOM      4  H   UNL     1       4.816   1.364   0.995  1.00  0.00     0.193 HD
ENDROOT
BRANCH   1   5
ATOM      5  C   UNL     1       2.244   0.755   0.830  1.00  0.00     0.097 C 
ATOM      6  C   UNL     1       1.779   1.902  -0.084  1.00  0.00     0.045 C 
ATOM      7  C   UNL     1       0.339   1.482   0.254  1.00  0.00     0.095 C 
ATOM      8  C   UNL     1       0.897   0.076   0.530  1.00  0.00     0.045 C 
BRANCH   6   9
ATOM      9  C   UNL     1       2.142   1.704  -1.533  1.00  0.00    -0.043 A 
ATOM     10  C   UNL     1       2.807   1.341  -4.192  1.00  0.00     0.000 A 
ATOM     11  C   UNL     1       3.468   2.293  -3.438  1.00  0.00     0.000 A 
ATOM     12  C   UNL     1       1.813   0.571  -3.617  1.00  0.00     0.000 A 
ATOM     13  C   UNL     1       3.132   2.478  -2.110  1.00  0.00     0.004 A 
ATOM     14  C   UNL     1       1.481   0.752  -2.287  1.00  0.00     0.004 A 
ENDBRANCH   6   9
BRANCH   7  15
ATOM     15  C   UNL     1      -0.219   2.162   1.478  1.00  0.00     0.227 C 
ATOM     16  O   UNL     1       0.532   2.605   2.320  1.00  0.00    -0.275 OA
ATOM     17  N   UNL     1      -1.552   2.277   1.636  1.00  0.00    -0.338 N 
ATOM     18  C   UNL     1      -2.120   2.936   2.823  1.00  0.00     0.148 C 
ATOM     19  C   UNL     1      -2.483   1.752   0.624  1.00  0.00     0.148 C 
ATOM     20  C   UNL     1      -3.181   2.011   3.429  1.00  0.00     0.181 C 
ATOM     21  C   UNL     1      -3.527   0.879   1.340  1.00  0.00     0.181 C 
ATOM     22  O   UNL     1      -4.109   1.627   2.410  1.00  0.00    -0.378 OA
ENDBRANCH   7  15
BRANCH   8  23
ATOM     23  C   UNL     1       0.278  -0.594   1.730  1.00  0.00    -0.043 A 
ATOM     24  C   UNL     1      -0.866  -1.355   1.584  1.00  0.00     0.004 A 
ATOM     25  C   UNL     1       0.859  -0.451   2.977  1.00  0.00     0.004 A 
ATOM     26  C   UNL     1      -1.433  -1.969   2.684  1.00  0.00     0.000 A 
ATOM     27  C   UNL     1       0.289  -1.062   4.078  1.00  0.00     0.000 A 
ATOM     28  C   UNL     1      -0.856  -1.822   3.932  1.00  0.00     0.000 A 
ENDBRANCH   8  23
ENDBRANCH   1   5
BRANCH   3  29
ATOM     29  N   UNL     1       5.783  -0.221  -0.015  1.00  0.00    -0.181 NA
ATOM     30  C   UNL     1       6.982   0.242   0.168  1.00  0.00     0.145 C 
BRANCH  30  31
ATOM     31  C   UNL     1       8.144  -0.496  -0.356  1.00  0.00     0.037 A 
ATOM     32  C   UNL     1       7.959  -1.702  -1.047  1.00  0.00     0.128 A 
ATOM     33  C   UNL     1       9.436  -0.001  -0.160  1.00  0.00     0.017 A 
ATOM     34  C   UNL     1       9.056  -2.387  -1.540  1.00  0.00     0.093 A 
ATOM     35  C   UNL     1      10.520  -0.694  -0.651  1.00  0.00     0.047 A 
ATOM     36  C   UNL     1      10.334  -1.887  -1.341  1.00  0.00     0.119 A 
BRANCH  32  37
ATOM     37  O   UNL     1       6.707  -2.193  -1.237  1.00  0.00    -0.507 OA
ATOM     38  H   UNL     1       6.217  -1.467  -1.698  1.00  0.00     0.293 HD
ENDBRANCH  32  37
BRANCH  36  39
ATOM     39  O   UNL     1      11.409  -2.565  -1.821  1.00  0.00    -0.508 OA
ATOM     40  H   UNL     1      11.985  -2.724  -1.032  1.00  0.00     0.293 HD
ENDBRANCH  36  39
ENDBRANCH  30  31
ENDBRANCH   3  29
TORSDOF 8
