REMARK SMILES CCCCCOC(=O)c1ccc(-n2nc(C)c3c2OC(N)=C(C#N)[C@@H]3c2ccc(Br)cc2)cc1
REMARK SMILES IDX 6 1 5 2 4 3 3 4 2 5 1 6 7 7 8 8 9 9 34 10 10 11 33 12 11 13
REMARK SMILES IDX 12 14 13 15 14 16 18 17 15 18 19 19 17 20 16 21 20 22 25 23
REMARK SMILES IDX 22 24 21 25 26 28 32 29 27 30 31 31 28 32 29 33 30 34 23 35
REMARK SMILES IDX 24 36
REMARK H PARENT 21 26 21 27
REMARK Flexibility Score: inf
ROOT
ATOM      1  O   UNL     1      10.490   5.420   3.088  1.00  0.00    -0.462 OA
ENDROOT
BRANCH   1   2
ATOM      2  C   UNL     1      11.621   6.208   3.543  1.00  0.00     0.233 C 
BRANCH   2   3
ATOM      3  C   UNL     1      12.729   6.167   2.489  1.00  0.00     0.042 C 
BRANCH   3   4
ATOM      4  C   UNL     1      13.921   6.997   2.969  1.00  0.00     0.003 C 
BRANCH   4   5
ATOM      5  C   UNL     1      15.029   6.957   1.914  1.00  0.00    -0.003 C 
ATOM      6  C   UNL     1      16.221   7.787   2.395  1.00  0.00     0.004 C 
ENDBRANCH   4   5
ENDBRANCH   3   4
ENDBRANCH   2   3
ENDBRANCH   1   2
BRANCH   1   7
ATOM      7  C   UNL     1       9.422   5.353   3.907  1.00  0.00     0.338 C 
ATOM      8  O   UNL     1       9.436   5.936   4.973  1.00  0.00    -0.246 OA
BRANCH   7   9
ATOM      9  C   UNL     1       8.236   4.571   3.509  1.00  0.00     0.060 A 
ATOM     10  C   UNL     1       8.219   3.899   2.284  1.00  0.00     0.018 A 
ATOM     11  C   UNL     1       7.128   4.499   4.358  1.00  0.00     0.018 A 
ATOM     12  C   UNL     1       7.112   3.166   1.919  1.00  0.00     0.029 A 
ATOM     13  C   UNL     1       6.023   3.768   3.983  1.00  0.00     0.029 A 
ATOM     14  C   UNL     1       6.009   3.101   2.763  1.00  0.00     0.069 A 
BRANCH  14  15
ATOM     15  N   UNL     1       4.885   2.360   2.387  1.00  0.00    -0.200 N 
ATOM     16  N   UNL     1       4.053   1.624   3.245  1.00  0.00    -0.170 NA
ATOM     17  C   UNL     1       4.404   2.223   1.131  1.00  0.00     0.229 A 
ATOM     18  C   UNL     1       3.106   1.067   2.528  1.00  0.00     0.068 A 
ATOM     19  O   UNL     1       4.864   2.739  -0.035  1.00  0.00    -0.422 OA
ATOM     20  C   UNL     1       3.298   1.423   1.200  1.00  0.00     0.051 A 
ATOM     21  C   UNL     1       1.999   0.191   3.056  1.00  0.00     0.069 C 
ATOM     22  C   UNL     1       4.370   2.229  -1.182  1.00  0.00     0.207 C 
ATOM     23  C   UNL     1       2.490   1.047  -0.016  1.00  0.00     0.103 C 
ATOM     24  C   UNL     1       3.276   1.436  -1.243  1.00  0.00     0.102 C 
BRANCH  22  25
ATOM     25  N   UNL     1       5.015   2.531  -2.355  1.00  0.00    -0.369 N 
ATOM     26  H   UNL     1       4.682   2.167  -3.260  1.00  0.00     0.159 HD
ATOM     27  H   UNL     1       5.850   3.134  -2.326  1.00  0.00     0.159 HD
ENDBRANCH  22  25
BRANCH  23  28
ATOM     28  C   UNL     1       1.175   1.783   0.000  1.00  0.00    -0.035 A 
ATOM     29  C   UNL     1       1.157   3.165   0.008  1.00  0.00     0.006 A 
ATOM     30  C   UNL     1      -0.013   1.076   0.008  1.00  0.00     0.006 A 
ATOM     31  C   UNL     1      -0.049   3.841   0.023  1.00  0.00     0.016 A 
ATOM     32  C   UNL     1      -1.219   1.750   0.017  1.00  0.00     0.016 A 
ATOM     33  C   UNL     1      -1.238   3.134   0.030  1.00  0.00     0.017 A 
ATOM     34  Br  UNL     1      -2.888   4.057   0.050  1.00  0.00    -0.051 Br
ENDBRANCH  23  28
BRANCH  24  35
ATOM     35  C   UNL     1       2.847   0.947  -2.519  1.00  0.00     0.101 C 
ATOM     36  N   UNL     1       2.507   0.560  -3.531  1.00  0.00    -0.193 NA
ENDBRANCH  24  35
ENDBRANCH  14  15
ENDBRANCH   7   9
ENDBRANCH   1   7
TORSDOF 10
