REMARK SMILES Cc1cccc(Cl)c1COc1ccc(/C=N/Nc2nc(SCC(=O)NCc3ccccc3)n[nH]2)o1
REMARK SMILES IDX 18 1 19 2 20 3 33 4 34 5 17 7 16 9 15 10 14 11 11 12 35 13
REMARK SMILES IDX 12 14 13 15 10 16 9 17 8 18 1 19 2 20 3 21 6 22 4 23 5 24
REMARK SMILES IDX 7 25 21 26 22 27 23 28 24 29 25 30 26 32 27 33 32 34 28 35
REMARK SMILES IDX 31 36 29 37 30 38
REMARK H PARENT 34 6 17 8 25 31
REMARK Flexibility Score: inf
ROOT
ATOM      1  C   UNL     1       0.143  -5.766   6.604  1.00  0.00     0.240 A 
ATOM      2  N   UNL     1       0.131  -5.854   5.239  1.00  0.00    -0.184 NA
ATOM      3  C   UNL     1       0.109  -4.585   4.735  1.00  0.00     0.210 A 
ATOM      4  N   UNL     1       0.113  -3.747   5.744  1.00  0.00    -0.145 NA
ATOM      5  N   UNL     1       0.129  -4.496   6.928  1.00  0.00    -0.243 N 
ATOM      6  H   UNL     1       0.129  -4.115   7.885  1.00  0.00     0.194 HD
ENDROOT
BRANCH   1   7
ATOM      7  N   UNL     1       0.166  -6.833   7.489  1.00  0.00    -0.245 N 
ATOM      8  H   UNL     1       0.176  -7.799   7.132  1.00  0.00     0.193 HD
BRANCH   7   9
ATOM      9  N   UNL     1       0.176  -6.597   8.870  1.00  0.00    -0.177 NA
ATOM     10  C   UNL     1       0.198  -7.599   9.702  1.00  0.00     0.180 C 
BRANCH  10  11
ATOM     11  C   UNL     1       0.208  -7.353  11.146  1.00  0.00     0.151 A 
ATOM     12  C   UNL     1       0.212  -6.302  13.076  1.00  0.00     0.285 A 
ATOM     13  O   UNL     1       0.203  -6.141  11.742  1.00  0.00    -0.425 OA
ATOM     14  C   UNL     1       0.233  -7.628  13.353  1.00  0.00     0.093 A 
ATOM     15  C   UNL     1       0.231  -8.307  12.121  1.00  0.00     0.056 A 
BRANCH  12  16
ATOM     16  O   UNL     1       0.207  -5.302  13.993  1.00  0.00    -0.460 OA
BRANCH  16  17
ATOM     17  C   UNL     1       0.183  -3.963  13.494  1.00  0.00     0.270 C 
BRANCH  17  18
ATOM     18  C   UNL     1       0.181  -2.996  14.649  1.00  0.00     0.011 A 
ATOM     19  C   UNL     1       2.682  -3.001  14.578  1.00  0.00     0.045 C 
ATOM     20  C   UNL     1       1.376  -2.536  15.168  1.00  0.00    -0.043 A 
ATOM     21  C   UNL     1       1.374  -1.648  16.228  1.00  0.00     0.004 A 
ATOM     22  C   UNL     1      -1.019  -2.564  15.187  1.00  0.00     0.047 A 
ATOM     23  C   UNL     1       0.176  -1.221  16.770  1.00  0.00     0.002 A 
ATOM     24  C   UNL     1      -1.020  -1.681  16.252  1.00  0.00     0.021 A 
ATOM     25  Cl  UNL     1      -2.521  -3.136  14.532  1.00  0.00    -0.084 Cl
ENDBRANCH  17  18
ENDBRANCH  16  17
ENDBRANCH  12  16
ENDBRANCH  10  11
ENDBRANCH   7   9
ENDBRANCH   1   7
BRANCH   3  26
ATOM     26  S   UNL     1       0.087  -4.150   3.027  1.00  0.00    -0.074 SA
BRANCH  26  27
ATOM     27  C   UNL     1       0.063  -2.336   3.037  1.00  0.00     0.178 C 
BRANCH  27  28
ATOM     28  C   UNL     1       0.042  -1.826   1.619  1.00  0.00     0.230 C 
ATOM     29  O   UNL     1       0.044  -2.609   0.693  1.00  0.00    -0.274 OA
ATOM     30  N   UNL     1       0.022  -0.500   1.381  1.00  0.00    -0.351 N 
ATOM     31  H   UNL     1       0.020   0.165   2.167  1.00  0.00     0.163 HD
BRANCH  30  32
ATOM     32  C   UNL     1       0.002  -0.004   0.002  1.00  0.00     0.151 C 
BRANCH  32  33
ATOM     33  C   UNL     1      -0.018   1.503   0.010  1.00  0.00    -0.029 A 
ATOM     34  C   UNL     1       1.169   2.210   0.003  1.00  0.00     0.005 A 
ATOM     35  C   UNL     1      -1.225   2.178   0.020  1.00  0.00     0.005 A 
ATOM     36  C   UNL     1       1.151   3.592   0.010  1.00  0.00     0.000 A 
ATOM     37  C   UNL     1      -1.244   3.560   0.032  1.00  0.00     0.000 A 
ATOM     38  C   UNL     1      -0.056   4.267   0.025  1.00  0.00     0.000 A 
ENDBRANCH  32  33
ENDBRANCH  30  32
ENDBRANCH  27  28
ENDBRANCH  26  27
ENDBRANCH   3  26
TORSDOF 11
