REMARK SMILES N#Cc1ccc(/C=N/NC(=O)c2cccc(N/N=C/c3ccc(C#N)cc3)c2)cc1
REMARK SMILES IDX 14 1 13 2 12 3 28 4 16 5 15 6 17 7 18 9 19 10 20 11 27 12
REMARK SMILES IDX 21 13 26 14 22 15 23 16 24 17 25 18 10 19 11 20 9 21 8 23
REMARK SMILES IDX 7 24 6 25 29 26 5 27 30 28 4 29 3 30 2 31 1 32
REMARK H PARENT 17 8 9 22
REMARK Flexibility Score: inf
ROOT
ATOM      1  C   UNL     1       1.176   1.781   0.000  1.00  0.00     0.003 A 
ATOM      2  C   UNL     1       1.166   3.161   0.007  1.00  0.00     0.014 A 
ATOM      3  C   UNL     1      -0.049   3.850   0.022  1.00  0.00     0.043 A 
ATOM      4  C   UNL     1      -1.249   3.139   0.029  1.00  0.00     0.041 A 
ATOM      5  C   UNL     1      -1.228   1.753   0.017  1.00  0.00     0.057 A 
ATOM      6  C   UNL     1      -0.013   1.076   0.008  1.00  0.00     0.028 A 
ENDROOT
BRANCH   5   7
ATOM      7  N   UNL     1      -2.426   1.036   0.019  1.00  0.00    -0.278 N 
ATOM      8  H   UNL     1      -3.325   1.538   0.026  1.00  0.00     0.190 HD
BRANCH   7   9
ATOM      9  N   UNL     1      -2.404  -0.364   0.011  1.00  0.00    -0.183 NA
ATOM     10  C   UNL     1      -3.520  -1.031   0.013  1.00  0.00     0.141 C 
BRANCH  10  11
ATOM     11  C   UNL     1      -3.497  -2.503   0.005  1.00  0.00    -0.005 A 
ATOM     12  C   UNL     1      -4.698  -3.221   0.007  1.00  0.00     0.011 A 
ATOM     13  C   UNL     1      -2.275  -3.184  -0.010  1.00  0.00     0.011 A 
ATOM     14  C   UNL     1      -4.677  -4.587  -0.001  1.00  0.00     0.020 A 
ATOM     15  C   UNL     1      -2.254  -4.550  -0.013  1.00  0.00     0.020 A 
ATOM     16  C   UNL     1      -3.455  -5.267  -0.011  1.00  0.00     0.052 A 
BRANCH  16  17
ATOM     17  C   UNL     1      -3.433  -6.699  -0.021  1.00  0.00     0.099 C 
ATOM     18  N   UNL     1      -3.416  -7.835  -0.028  1.00  0.00    -0.192 NA
ENDBRANCH  16  17
ENDBRANCH  10  11
ENDBRANCH   7   9
ENDBRANCH   5   7
BRANCH   3  19
ATOM     19  C   UNL     1      -0.062   5.328   0.029  1.00  0.00     0.271 C 
ATOM     20  O   UNL     1      -1.120   5.926   0.042  1.00  0.00    -0.267 OA
ATOM     21  N   UNL     1       1.099   6.013   0.022  1.00  0.00    -0.243 N 
ATOM     22  H   UNL     1       1.996   5.506   0.012  1.00  0.00     0.194 HD
BRANCH  21  23
ATOM     23  N   UNL     1       1.086   7.414   0.030  1.00  0.00    -0.180 NA
ATOM     24  C   UNL     1       2.205   8.073   0.023  1.00  0.00     0.141 C 
BRANCH  24  25
ATOM     25  C   UNL     1       2.191   9.546   0.030  1.00  0.00    -0.005 A 
ATOM     26  C   UNL     1       3.396  10.257   0.023  1.00  0.00     0.011 A 
ATOM     27  C   UNL     1       0.974  10.235   0.039  1.00  0.00     0.011 A 
ATOM     28  C   UNL     1       3.384  11.623   0.030  1.00  0.00     0.020 A 
ATOM     29  C   UNL     1       0.962  11.600   0.051  1.00  0.00     0.020 A 
ATOM     30  C   UNL     1       2.166  12.310   0.044  1.00  0.00     0.052 A 
BRANCH  30  31
ATOM     31  C   UNL     1       2.153  13.742   0.051  1.00  0.00     0.099 C 
ATOM     32  N   UNL     1       2.143  14.878   0.057  1.00  0.00    -0.192 NA
ENDBRANCH  30  31
ENDBRANCH  24  25
ENDBRANCH  21  23
ENDBRANCH   3  19
TORSDOF 8
