REMARK SMILES Nc1nc(COC(=O)CNC(=O)C[C@]23C[C@H]4C[C@H](C[C@H](C4)C2)C3)nc2sc3c(c12)CCCC3
REMARK SMILES IDX 7 1 8 2 6 3 5 4 4 5 31 6 30 7 32 8 28 9 33 10 27 11 29 12
REMARK SMILES IDX 26 13 25 14 2 15 24 16 3 17 1 18 9 21 10 22 11 23 12 25
REMARK SMILES IDX 13 26 14 27 15 28 22 29 23 30 16 31 20 32 18 33 17 34 21 35
REMARK SMILES IDX 19 36
REMARK H PARENT 1 19 1 20 10 24
REMARK Flexibility Score: inf
ROOT
ATOM      1  C   UNL     1      -8.096   1.622   3.078  1.00  0.00     0.325 C 
ATOM      2  O   UNL     1      -8.313   0.892   2.140  1.00  0.00    -0.250 OA
ENDROOT
BRANCH   1   3
ATOM      3  O   UNL     1      -9.040   1.811   4.014  1.00  0.00    -0.456 OA
BRANCH   3   4
ATOM      4  C   UNL     1     -10.297   1.107   3.834  1.00  0.00     0.310 C 
BRANCH   4   5
ATOM      5  C   UNL     1     -11.226   1.439   4.973  1.00  0.00     0.169 A 
ATOM      6  C   UNL     1     -14.718   2.726  10.365  1.00  0.00     0.005 C 
ATOM      7  C   UNL     1     -14.022   1.776   9.390  1.00  0.00     0.037 C 
ATOM      8  C   UNL     1     -16.008   3.261   9.737  1.00  0.00     0.006 C 
ATOM      9  C   UNL     1     -13.857   2.482   8.047  1.00  0.00    -0.021 A 
ATOM     10  C   UNL     1     -15.639   4.223   8.598  1.00  0.00     0.047 C 
ATOM     11  C   UNL     1     -14.599   3.566   7.743  1.00  0.00     0.011 A 
ATOM     12  C   UNL     1     -12.899   2.029   7.037  1.00  0.00     0.057 A 
ATOM     13  S   UNL     1     -14.077   4.043   6.117  1.00  0.00    -0.120 S 
ATOM     14  C   UNL     1     -12.859   2.782   5.847  1.00  0.00     0.129 A 
ATOM     15  C   UNL     1     -12.001   0.927   7.093  1.00  0.00     0.136 A 
ATOM     16  N   UNL     1     -12.037   2.473   4.863  1.00  0.00    -0.218 NA
ATOM     17  N   UNL     1     -11.214   0.685   6.057  1.00  0.00    -0.212 NA
BRANCH  15  18
ATOM     18  N   UNL     1     -11.954   0.117   8.213  1.00  0.00    -0.383 N 
ATOM     19  H   UNL     1     -12.575   0.314   9.011  1.00  0.00     0.158 HD
ATOM     20  H   UNL     1     -11.302  -0.680   8.251  1.00  0.00     0.158 HD
ENDBRANCH  15  18
ENDBRANCH   4   5
ENDBRANCH   3   4
ENDBRANCH   1   3
BRANCH   1  21
ATOM     21  C   UNL     1      -6.766   2.319   3.198  1.00  0.00     0.238 C 
BRANCH  21  22
ATOM     22  N   UNL     1      -5.917   1.951   2.062  1.00  0.00    -0.345 N 
ATOM     23  C   UNL     1      -4.673   2.459   1.958  1.00  0.00     0.221 C 
ATOM     24  H   UNL     1      -6.272   1.305   1.342  1.00  0.00     0.164 HD
ATOM     25  O   UNL     1      -4.256   3.220   2.805  1.00  0.00    -0.275 OA
BRANCH  23  26
ATOM     26  C   UNL     1      -3.800   2.080   0.788  1.00  0.00     0.107 C 
BRANCH  26  27
ATOM     27  C   UNL     1      -2.450   2.789   0.910  1.00  0.00    -0.020 C 
ATOM     28  C   UNL     1      -1.768   2.366   2.213  1.00  0.00     0.011 C 
ATOM     29  C   UNL     1      -2.666   4.303   0.916  1.00  0.00     0.011 C 
ATOM     30  C   UNL     1      -1.564   2.405  -0.277  1.00  0.00     0.011 C 
ATOM     31  C   UNL     1      -0.417   3.074   2.335  1.00  0.00    -0.010 C 
ATOM     32  C   UNL     1      -1.316   5.011   1.038  1.00  0.00    -0.010 C 
ATOM     33  C   UNL     1      -0.213   3.113  -0.155  1.00  0.00    -0.010 C 
ATOM     34  C   UNL     1       0.469   2.690   1.148  1.00  0.00     0.007 C 
ATOM     35  C   UNL     1      -0.634   4.589   2.341  1.00  0.00     0.007 C 
ATOM     36  C   UNL     1      -0.430   4.627  -0.149  1.00  0.00     0.007 C 
ENDBRANCH  26  27
ENDBRANCH  23  26
ENDBRANCH  21  22
ENDBRANCH   1  21
TORSDOF 8
