REMARK SMILES Cc1cc(=O)oc2cc(O[C@@H](C)C(=O)NNC(=O)[C@H]3CC=CCC3)ccc12
REMARK SMILES IDX 11 1 12 2 10 3 9 4 1 5 2 6 27 7 3 8 7 9 26 10 4 11 6 12 8 13
REMARK SMILES IDX 25 14 5 15 13 16 14 17 15 18 16 20 17 21 18 23 19 24 20 25
REMARK SMILES IDX 24 26 21 27 23 28 22 29
REMARK H PARENT 15 19 16 22
REMARK Flexibility Score: inf
ROOT
ATOM      1  C   UNL     1       1.220   1.901   0.209  1.00  0.00     0.260 C 
ATOM      2  C   UNL     1       1.190   2.887  -0.960  1.00  0.00     0.064 C 
ENDROOT
BRANCH   1   3
ATOM      3  O   UNL     1       2.377   1.070   0.102  1.00  0.00    -0.481 OA
BRANCH   3   4
ATOM      4  C   UNL     1       3.534   1.555   0.622  1.00  0.00     0.124 A 
ATOM      5  C   UNL     1       8.393   2.219   2.290  1.00  0.00     0.045 C 
ATOM      6  C   UNL     1       7.142   3.059   2.239  1.00  0.00    -0.033 A 
ATOM      7  C   UNL     1       5.900   2.525   1.676  1.00  0.00     0.021 A 
ATOM      8  C   UNL     1       7.136   4.331   2.714  1.00  0.00     0.098 A 
ATOM      9  C   UNL     1       4.756   3.344   1.649  1.00  0.00     0.142 A 
ATOM     10  C   UNL     1       5.840   1.222   1.170  1.00  0.00     0.016 A 
ATOM     11  C   UNL     1       5.953   5.096   2.656  1.00  0.00     0.336 A 
ATOM     12  O   UNL     1       4.818   4.601   2.138  1.00  0.00    -0.423 OA
ATOM     13  C   UNL     1       3.577   2.849   1.114  1.00  0.00     0.094 A 
ATOM     14  C   UNL     1       4.670   0.748   0.651  1.00  0.00     0.047 A 
ATOM     15  O   UNL     1       5.962   6.236   3.086  1.00  0.00    -0.246 OA
ENDBRANCH   3   4
ENDBRANCH   1   3
BRANCH   1  16
ATOM     16  C   UNL     1      -0.019   1.043   0.174  1.00  0.00     0.279 C 
ATOM     17  O   UNL     1       0.075  -0.150  -0.023  1.00  0.00    -0.269 OA
ATOM     18  N   UNL     1      -1.232   1.603   0.356  1.00  0.00    -0.264 N 
ATOM     19  H   UNL     1      -1.311   2.616   0.523  1.00  0.00     0.191 HD
BRANCH  18  20
ATOM     20  N   UNL     1      -2.384   0.806   0.317  1.00  0.00    -0.267 N 
ATOM     21  C   UNL     1      -3.596   1.366   0.499  1.00  0.00     0.241 C 
ATOM     22  H   UNL     1      -2.304  -0.207   0.150  1.00  0.00     0.191 HD
ATOM     23  O   UNL     1      -3.690   2.559   0.696  1.00  0.00    -0.273 OA
BRANCH  21  24
ATOM     24  C   UNL     1      -4.835   0.509   0.457  1.00  0.00     0.084 C 
ATOM     25  C   UNL     1      -4.770  -0.544   1.565  1.00  0.00     0.040 C 
ATOM     26  C   UNL     1      -6.074   1.383   0.691  1.00  0.00     0.018 C 
ATOM     27  C   UNL     1      -6.098  -1.227   1.708  1.00  0.00    -0.030 C 
ATOM     28  C   UNL     1      -7.321   0.525   0.467  1.00  0.00     0.028 C 
ATOM     29  C   UNL     1      -7.209  -0.760   1.234  1.00  0.00    -0.031 C 
ENDBRANCH  21  24
ENDBRANCH  18  20
ENDBRANCH   1  16
TORSDOF 5
