REMARK SMILES CCN(CC)c1ccc(/C=N/NC(=O)Cc2ccc(Br)c3ccccc23)c(O)c1
REMARK SMILES IDX 10 1 11 2 9 3 6 4 29 5 7 6 27 7 8 8 3 9 2 10 1 11 4 12 5 13
REMARK SMILES IDX 28 14 12 16 13 17 14 19 15 20 16 21 26 22 17 23 21 24 25 25
REMARK SMILES IDX 18 26 19 27 22 28 24 29 20 30 23 31
REMARK H PARENT 28 15 12 18
REMARK Flexibility Score: inf
ROOT
ATOM      1  C   UNL     1      -4.948   4.205   0.047  1.00  0.00     0.145 C 
ATOM      2  N   UNL     1      -4.970   5.503   0.054  1.00  0.00    -0.181 NA
ENDROOT
BRANCH   1   3
ATOM      3  C   UNL     1      -3.661   3.490   0.038  1.00  0.00     0.036 A 
ATOM      4  C   UNL     1      -1.235   2.142   0.019  1.00  0.00     0.040 A 
ATOM      5  C   UNL     1      -1.251   3.530   0.033  1.00  0.00     0.072 A 
ATOM      6  C   UNL     1      -2.429   1.427   0.021  1.00  0.00     0.027 A 
ATOM      7  C   UNL     1      -2.456   4.209   0.037  1.00  0.00     0.126 A 
ATOM      8  C   UNL     1      -3.635   2.092   0.030  1.00  0.00     0.016 A 
BRANCH   4   9
ATOM      9  N   UNL     1      -0.018   1.461   0.010  1.00  0.00    -0.372 N 
BRANCH   9  10
ATOM     10  C   UNL     1       0.002  -0.004   0.002  1.00  0.00     0.113 C 
ATOM     11  C   UNL     1       0.023  -0.522   1.442  1.00  0.00     0.027 C 
ENDBRANCH   9  10
BRANCH   9  12
ATOM     12  C   UNL     1       1.241   2.211   0.002  1.00  0.00     0.113 C 
ATOM     13  C   UNL     1       1.665   2.479  -1.443  1.00  0.00     0.027 C 
ENDBRANCH   9  12
ENDBRANCH   4   9
BRANCH   7  14
ATOM     14  O   UNL     1      -2.474   5.567   0.044  1.00  0.00    -0.507 OA
ATOM     15  H   UNL     1      -3.005   5.809   0.844  1.00  0.00     0.293 HD
ENDBRANCH   7  14
ENDBRANCH   1   3
BRANCH   2  16
ATOM     16  N   UNL     1      -6.194   6.183   0.063  1.00  0.00    -0.247 N 
ATOM     17  C   UNL     1      -6.217   7.531   0.070  1.00  0.00     0.244 C 
ATOM     18  H   UNL     1      -7.078   5.654   0.063  1.00  0.00     0.193 HD
ATOM     19  O   UNL     1      -5.176   8.155   0.069  1.00  0.00    -0.273 OA
BRANCH  17  20
ATOM     20  C   UNL     1      -7.534   8.263   0.079  1.00  0.00     0.138 C 
BRANCH  20  21
ATOM     21  C   UNL     1      -7.284   9.749   0.086  1.00  0.00    -0.031 A 
ATOM     22  C   UNL     1      -7.066  10.434  -1.121  1.00  0.00    -0.014 A 
ATOM     23  C   UNL     1      -7.272  10.435   1.262  1.00  0.00     0.006 A 
ATOM     24  C   UNL     1      -6.832  11.831  -1.095  1.00  0.00    -0.004 A 
ATOM     25  C   UNL     1      -7.078   9.760  -2.354  1.00  0.00     0.009 A 
ATOM     26  C   UNL     1      -7.035  11.807   1.290  1.00  0.00     0.016 A 
ATOM     27  C   UNL     1      -6.821  12.505   0.139  1.00  0.00     0.025 A 
ATOM     28  C   UNL     1      -6.616  12.517  -2.302  1.00  0.00     0.010 A 
ATOM     29  C   UNL     1      -6.864  10.457  -3.504  1.00  0.00     0.001 A 
ATOM     30  Br  UNL     1      -6.512  14.369   0.202  1.00  0.00    -0.050 Br
ATOM     31  C   UNL     1      -6.634  11.832  -3.478  1.00  0.00     0.001 A 
ENDBRANCH  20  21
ENDBRANCH  17  20
ENDBRANCH   2  16
TORSDOF 8
