REMARK SMILES C[C@@H]1Oc2ccccc2O[C@H]1C(=O)NNC(=O)COc1ccccc1Cl
REMARK SMILES IDX 15 1 16 2 17 3 14 5 12 6 13 7 11 9 1 10 2 11 3 12 4 13 10 14
REMARK SMILES IDX 9 15 5 16 8 17 6 18 7 19 18 20 19 21 20 22 25 23 21 24 24 25
REMARK SMILES IDX 26 26 22 27 23 28
REMARK H PARENT 15 4 14 8
REMARK Flexibility Score: inf
ROOT
ATOM      1  N   UNL     1      -0.053   0.969  -0.150  1.00  0.00    -0.265 N 
ATOM      2  C   UNL     1       1.102   1.659  -0.230  1.00  0.00     0.276 C 
ATOM      3  O   UNL     1       1.083   2.872  -0.259  1.00  0.00    -0.269 OA
ATOM      4  H   UNL     1      -0.037  -0.060  -0.121  1.00  0.00     0.191 HD
ENDROOT
BRANCH   1   5
ATOM      5  N   UNL     1      -1.276   1.652  -0.106  1.00  0.00    -0.264 N 
ATOM      6  C   UNL     1      -2.431   0.962  -0.032  1.00  0.00     0.283 C 
ATOM      7  O   UNL     1      -2.419  -0.249  -0.093  1.00  0.00    -0.269 OA
ATOM      8  H   UNL     1      -1.292   2.682  -0.131  1.00  0.00     0.191 HD
BRANCH   6   9
ATOM      9  C   UNL     1      -3.738   1.696   0.129  1.00  0.00     0.304 C 
ATOM     10  C   UNL     1      -4.594  -0.098   1.655  1.00  0.00     0.057 C 
ATOM     11  C   UNL     1      -4.329   1.403   1.514  1.00  0.00     0.221 C 
ATOM     12  O   UNL     1      -5.560   2.124   1.637  1.00  0.00    -0.482 OA
ATOM     13  C   UNL     1      -5.547   3.427   1.246  1.00  0.00     0.161 A 
ATOM     14  O   UNL     1      -3.516   3.106   0.025  1.00  0.00    -0.473 OA
ATOM     15  C   UNL     1      -4.529   3.917   0.437  1.00  0.00     0.162 A 
ATOM     16  C   UNL     1      -6.565   4.273   1.661  1.00  0.00     0.050 A 
ATOM     17  C   UNL     1      -4.537   5.247   0.046  1.00  0.00     0.050 A 
ATOM     18  C   UNL     1      -6.567   5.598   1.269  1.00  0.00     0.004 A 
ATOM     19  C   UNL     1      -5.555   6.085   0.463  1.00  0.00     0.004 A 
ENDBRANCH   6   9
ENDBRANCH   1   5
BRANCH   2  20
ATOM     20  C   UNL     1       2.416   0.925  -0.284  1.00  0.00     0.331 C 
BRANCH  20  21
ATOM     21  O   UNL     1       3.486   1.868  -0.365  1.00  0.00    -0.482 OA
BRANCH  21  22
ATOM     22  C   UNL     1       4.748   1.366  -0.422  1.00  0.00     0.138 A 
ATOM     23  C   UNL     1       5.835   2.226  -0.508  1.00  0.00     0.083 A 
ATOM     24  C   UNL     1       4.952  -0.005  -0.399  1.00  0.00     0.048 A 
ATOM     25  C   UNL     1       7.118   1.713  -0.560  1.00  0.00     0.024 A 
ATOM     26  Cl  UNL     1       5.584   3.943  -0.545  1.00  0.00    -0.080 Cl
ATOM     27  C   UNL     1       6.236  -0.513  -0.456  1.00  0.00     0.004 A 
ATOM     28  C   UNL     1       7.317   0.345  -0.536  1.00  0.00     0.002 A 
ENDBRANCH  21  22
ENDBRANCH  20  21
ENDBRANCH   2  20
TORSDOF 5
