REMARK SMILES CC[NH+](CC)CCNC(=O)c1ccc2c(c1)[C@H]1C=CC[C@H]1[C@@H](c1c3ccccc3cc3ccccc13)N2
REMARK SMILES IDX 7 1 6 2 3 3 2 5 1 6 4 7 5 8 8 9 9 10 10 12 11 13 16 14 12 15
REMARK SMILES IDX 15 16 13 17 14 18 17 19 37 20 21 21 18 22 22 23 20 25 19 26
REMARK SMILES IDX 23 27 36 28 24 29 31 30 35 31 29 32 25 33 30 34 32 35 34 36
REMARK SMILES IDX 28 37 26 38 33 39 27 40
REMARK H PARENT 3 4 8 11 37 24
REMARK Flexibility Score: inf
ROOT
ATOM      1  C   UNL     1       0.178  -0.330   0.867  1.00  0.00     0.177 C 
ENDROOT
BRANCH   1   2
ATOM      2  C   UNL     1       1.629  -0.568   0.445  1.00  0.00     0.283 C 
BRANCH   2   3
ATOM      3  N   UNL     1       1.802  -1.974   0.057  1.00  0.00    -0.334 N 
ATOM      4  H   UNL     1       1.440  -2.561   0.823  1.00  0.00     0.348 HD
BRANCH   3   5
ATOM      5  C   UNL     1       1.031  -2.285  -1.153  1.00  0.00     0.258 C 
ATOM      6  C   UNL     1       1.554  -1.446  -2.321  1.00  0.00     0.071 C 
ENDBRANCH   3   5
BRANCH   3   7
ATOM      7  C   UNL     1       3.223  -2.299  -0.126  1.00  0.00     0.258 C 
ATOM      8  C   UNL     1       3.394  -3.818  -0.196  1.00  0.00     0.071 C 
ENDBRANCH   3   7
ENDBRANCH   2   3
ENDBRANCH   1   2
BRANCH   1   9
ATOM      9  N   UNL     1       0.005   1.073   1.253  1.00  0.00    -0.346 N 
ATOM     10  C   UNL     1      -1.201   1.517   1.658  1.00  0.00     0.251 C 
ATOM     11  H   UNL     1       0.806   1.719   1.216  1.00  0.00     0.164 HD
ATOM     12  O   UNL     1      -2.146   0.753   1.702  1.00  0.00    -0.269 OA
BRANCH  10  13
ATOM     13  C   UNL     1      -1.375   2.929   2.047  1.00  0.00     0.040 A 
ATOM     14  C   UNL     1      -2.624   3.390   2.461  1.00  0.00     0.020 A 
ATOM     15  C   UNL     1      -0.288   3.807   1.996  1.00  0.00     0.016 A 
ATOM     16  C   UNL     1      -2.796   4.711   2.834  1.00  0.00    -0.017 A 
ATOM     17  C   UNL     1      -0.460   5.122   2.362  1.00  0.00     0.027 A 
ATOM     18  C   UNL     1      -1.708   5.575   2.782  1.00  0.00     0.038 A 
ATOM     19  C   UNL     1      -4.153   5.159   3.276  1.00  0.00     0.049 C 
ATOM     20  N   UNL     1      -1.857   6.910   3.152  1.00  0.00    -0.378 N 
ATOM     21  C   UNL     1      -4.276   6.692   3.379  1.00  0.00     0.031 C 
ATOM     22  C   UNL     1      -4.470   4.666   4.667  1.00  0.00    -0.023 C 
ATOM     23  C   UNL     1      -3.000   7.277   3.993  1.00  0.00     0.115 C 
ATOM     24  H   UNL     1      -1.180   7.622   2.842  1.00  0.00     0.161 HD
ATOM     25  C   UNL     1      -5.396   6.789   4.455  1.00  0.00     0.034 C 
ATOM     26  C   UNL     1      -5.156   5.569   5.324  1.00  0.00    -0.030 C 
BRANCH  23  27
ATOM     27  C   UNL     1      -2.806   6.720   5.380  1.00  0.00    -0.010 A 
ATOM     28  C   UNL     1      -3.132   7.488   6.496  1.00  0.00    -0.012 A 
ATOM     29  C   UNL     1      -2.306   5.431   5.554  1.00  0.00    -0.012 A 
ATOM     30  C   UNL     1      -2.943   6.946   7.846  1.00  0.00    -0.017 A 
ATOM     31  C   UNL     1      -3.646   8.795   6.356  1.00  0.00     0.009 A 
ATOM     32  C   UNL     1      -2.112   4.891   6.904  1.00  0.00    -0.017 A 
ATOM     33  C   UNL     1      -1.960   4.628   4.446  1.00  0.00     0.009 A 
ATOM     34  C   UNL     1      -2.437   5.659   8.020  1.00  0.00     0.017 A 
ATOM     35  C   UNL     1      -3.282   7.752   8.954  1.00  0.00     0.009 A 
ATOM     36  C   UNL     1      -3.952   9.517   7.465  1.00  0.00     0.001 A 
ATOM     37  C   UNL     1      -1.597   3.584   7.043  1.00  0.00     0.009 A 
ATOM     38  C   UNL     1      -1.470   3.378   4.651  1.00  0.00     0.001 A 
ATOM     39  C   UNL     1      -3.772   9.001   8.749  1.00  0.00     0.001 A 
ATOM     40  C   UNL     1      -1.290   2.862   5.935  1.00  0.00     0.001 A 
ENDBRANCH  23  27
ENDBRANCH  10  13
ENDBRANCH   1   9
TORSDOF 7
