REMARK SMILES Cc1cc(N2C(N)=C(C#N)[C@H](c3cc(Cn4cnc5ccccc54)cs3)C3=C2CC(C)(C)CC3=O)no1
REMARK SMILES IDX 12 1 13 2 14 3 25 4 26 5 11 6 5 7 6 8 28 9 8 10 29 11 27 12
REMARK SMILES IDX 30 13 34 14 33 15 31 16 32 17 35 18 4 19 1 20 2 21 37 22
REMARK SMILES IDX 3 23 36 24 7 25 9 28 10 29 15 30 16 31 24 32 17 33 19 34
REMARK SMILES IDX 23 35 18 36 20 37 22 38 21 39
REMARK H PARENT 7 26 7 27
REMARK Flexibility Score: inf
ROOT
ATOM      1  C   UNL     1       4.892   1.910   3.201  1.00  0.00     0.018 A 
ATOM      2  C   UNL     1       4.447   1.845   1.923  1.00  0.00     0.022 A 
ATOM      3  C   UNL     1       4.190   0.606   1.365  1.00  0.00    -0.017 A 
ATOM      4  C   UNL     1       4.401  -0.507   2.110  1.00  0.00     0.070 A 
ATOM      5  S   UNL     1       4.973   0.185   3.654  1.00  0.00    -0.148 S 
ENDROOT
BRANCH   1   6
ATOM      6  C   UNL     1       5.236   3.124   4.025  1.00  0.00     0.110 C 
ATOM      7  N   UNL     1       6.149   2.364   6.589  1.00  0.00    -0.281 N 
ATOM      8  C   UNL     1       4.841   2.777   6.459  1.00  0.00     0.124 C 
ATOM      9  C   UNL     1       7.080   2.692   5.637  1.00  0.00     0.035 C 
ATOM     10  C   UNL     1       4.363   3.154   5.245  1.00  0.00     0.083 C 
ATOM     11  C   UNL     1       8.541   2.615   6.008  1.00  0.00     0.062 C 
ATOM     12  C   UNL     1       6.695   3.070   4.400  1.00  0.00     0.029 C 
ATOM     13  C   UNL     1       9.326   3.664   5.218  1.00  0.00    -0.023 C 
ATOM     14  C   UNL     1       7.643   3.424   3.424  1.00  0.00     0.162 C 
ATOM     15  C   UNL     1       9.117   3.404   3.723  1.00  0.00     0.087 C 
ATOM     16  C   UNL     1       8.817   5.062   5.573  1.00  0.00     0.012 C 
ATOM     17  C   UNL     1      10.814   3.557   5.560  1.00  0.00     0.012 C 
ATOM     18  O   UNL     1       7.264   3.753   2.317  1.00  0.00    -0.294 OA
BRANCH   7  19
ATOM     19  C   UNL     1       6.529   1.606   7.698  1.00  0.00     0.182 A 
ATOM     20  C   UNL     1       7.242  -1.391   9.683  1.00  0.00     0.091 C 
ATOM     21  C   UNL     1       7.005  -0.045   9.047  1.00  0.00     0.135 A 
ATOM     22  O   UNL     1       7.171   1.154   9.624  1.00  0.00    -0.360 OA
ATOM     23  C   UNL     1       6.585   0.189   7.784  1.00  0.00     0.096 A 
ATOM     24  N   UNL     1       6.909   2.057   8.864  1.00  0.00    -0.061 NA
ENDBRANCH   7  19
BRANCH   8  25
ATOM     25  N   UNL     1       4.018   2.807   7.560  1.00  0.00    -0.384 N 
ATOM     26  H   UNL     1       4.379   2.521   8.481  1.00  0.00     0.158 HD
ATOM     27  H   UNL     1       3.041   3.115   7.463  1.00  0.00     0.158 HD
ENDBRANCH   8  25
BRANCH  10  28
ATOM     28  C   UNL     1       3.004   3.589   5.128  1.00  0.00     0.100 C 
ATOM     29  N   UNL     1       1.925   3.933   5.035  1.00  0.00    -0.193 NA
ENDBRANCH  10  28
ENDBRANCH   1   6
BRANCH   3  30
ATOM     30  C   UNL     1       3.688   0.494  -0.051  1.00  0.00     0.160 C 
BRANCH  30  31
ATOM     31  N   UNL     1       2.223   0.517  -0.054  1.00  0.00    -0.326 N 
ATOM     32  C   UNL     1       1.423   1.642  -0.051  1.00  0.00     0.068 A 
ATOM     33  C   UNL     1       1.400  -0.566  -0.059  1.00  0.00     0.200 A 
ATOM     34  C   UNL     1       0.097   1.174  -0.055  1.00  0.00     0.088 A 
ATOM     35  C   UNL     1       1.673   3.007  -0.045  1.00  0.00     0.028 A 
ATOM     36  N   UNL     1       0.157  -0.182  -0.059  1.00  0.00    -0.237 NA
ATOM     37  C   UNL     1      -0.956   2.092  -0.048  1.00  0.00     0.030 A 
ATOM     38  C   UNL     1       0.618   3.895  -0.043  1.00  0.00     0.002 A 
ATOM     39  C   UNL     1      -0.690   3.433  -0.047  1.00  0.00     0.002 A 
ENDBRANCH  30  31
ENDBRANCH   3  30
TORSDOF 6
