REMARK SMILES O=C(Nc1ccc2c(c1)OCCO2)[C@@H](Cc1c[nH]c2ccccc12)NC(=O)[C@H]1Cc2ccccc2C[NH2+]1
REMARK SMILES IDX 14 1 25 2 26 3 27 4 28 6 32 7 31 8 33 9 30 10 34 11 35 12
REMARK SMILES IDX 29 13 36 14 37 15 15 18 16 19 24 20 17 21 19 22 23 23 18 24
REMARK SMILES IDX 20 25 22 26 21 28 2 29 1 30 3 31 4 33 9 34 5 35 8 36 6 37
REMARK SMILES IDX 7 38 10 39 13 40 11 41 12 42
REMARK H PARENT 25 5 37 16 37 17 18 27 3 32
REMARK Flexibility Score: inf
ROOT
ATOM      1  C   UNL     1       4.953  -2.739   0.140  1.00  0.00     0.176 C 
ENDROOT
BRANCH   1   2
ATOM      2  N   UNL     1       4.704  -4.180   0.232  1.00  0.00    -0.339 N 
ATOM      3  C   UNL     1       5.647  -5.054  -0.172  1.00  0.00     0.279 C 
ATOM      4  O   UNL     1       6.702  -4.647  -0.611  1.00  0.00    -0.268 OA
ATOM      5  H   UNL     1       3.808  -4.525   0.606  1.00  0.00     0.164 HD
BRANCH   3   6
ATOM      6  C   UNL     1       5.391  -6.536  -0.077  1.00  0.00     0.277 C 
ATOM      7  C   UNL     1       3.386 -10.462  -2.145  1.00  0.00     0.000 A 
ATOM      8  C   UNL     1       3.473  -9.087  -2.067  1.00  0.00     0.004 A 
ATOM      9  C   UNL     1       4.296 -11.248  -1.464  1.00  0.00     0.001 A 
ATOM     10  C   UNL     1       4.469  -8.489  -1.309  1.00  0.00    -0.033 A 
ATOM     11  C   UNL     1       5.287 -10.655  -0.707  1.00  0.00     0.010 A 
ATOM     12  C   UNL     1       5.375  -9.273  -0.626  1.00  0.00     0.010 A 
ATOM     13  C   UNL     1       4.528  -6.984  -1.257  1.00  0.00     0.111 C 
ATOM     14  C   UNL     1       6.467  -8.672   0.219  1.00  0.00     0.298 C 
ATOM     15  N   UNL     1       6.675  -7.261  -0.132  1.00  0.00    -0.332 N 
ATOM     16  H   UNL     1       7.337  -6.837   0.534  1.00  0.00     0.347 HD
ATOM     17  H   UNL     1       7.063  -7.198  -1.084  1.00  0.00     0.347 HD
ENDBRANCH   3   6
ENDBRANCH   1   2
BRANCH   1  18
ATOM     18  C   UNL     1       5.710  -2.272   1.385  1.00  0.00     0.072 C 
BRANCH  18  19
ATOM     19  C   UNL     1       7.074  -2.911   1.413  1.00  0.00    -0.020 A 
ATOM     20  C   UNL     1       8.279  -2.424   0.735  1.00  0.00     0.003 A 
ATOM     21  C   UNL     1       7.418  -4.032   2.067  1.00  0.00     0.087 A 
ATOM     22  C   UNL     1       9.299  -3.341   1.049  1.00  0.00     0.046 A 
ATOM     23  C   UNL     1       8.556  -1.325  -0.079  1.00  0.00     0.010 A 
ATOM     24  N   UNL     1       8.742  -4.308   1.856  1.00  0.00    -0.361 N 
ATOM     25  C   UNL     1      10.577  -3.139   0.540  1.00  0.00     0.026 A 
ATOM     26  C   UNL     1       9.820  -1.145  -0.568  1.00  0.00     0.001 A 
ATOM     27  H   UNL     1       9.246  -5.117   2.244  1.00  0.00     0.166 HD
ATOM     28  C   UNL     1      10.830  -2.047  -0.261  1.00  0.00     0.002 A 
ENDBRANCH  18  19
ENDBRANCH   1  18
BRANCH   1  29
ATOM     29  C   UNL     1       3.639  -2.007   0.048  1.00  0.00     0.247 C 
ATOM     30  O   UNL     1       2.597  -2.628   0.057  1.00  0.00    -0.272 OA
ATOM     31  N   UNL     1       3.621  -0.663  -0.046  1.00  0.00    -0.324 N 
ATOM     32  H   UNL     1       4.505  -0.141  -0.126  1.00  0.00     0.170 HD
BRANCH  31  33
ATOM     33  C   UNL     1       2.400   0.024  -0.034  1.00  0.00     0.045 A 
ATOM     34  C   UNL     1       1.282  -0.537  -0.634  1.00  0.00     0.076 A 
ATOM     35  C   UNL     1       2.309   1.268   0.576  1.00  0.00     0.030 A 
ATOM     36  C   UNL     1       0.074   0.143  -0.623  1.00  0.00     0.163 A 
ATOM     37  C   UNL     1       1.105   1.945   0.589  1.00  0.00     0.052 A 
ATOM     38  C   UNL     1      -0.015   1.386  -0.008  1.00  0.00     0.161 A 
ATOM     39  O   UNL     1      -1.012  -0.418  -1.221  1.00  0.00    -0.486 OA
ATOM     40  O   UNL     1      -1.195   2.065   0.022  1.00  0.00    -0.486 OA
ATOM     41  C   UNL     1      -2.292   0.119  -0.867  1.00  0.00     0.271 C 
ATOM     42  C   UNL     1      -2.200   1.650  -0.911  1.00  0.00     0.271 C 
ENDBRANCH  31  33
ENDBRANCH   1  29
TORSDOF 6
