REMARK SMILES O=C(Cc1ccccc1[N+](=O)[O-])N[C@@H](c1ccccc1)c1ccc2nc(C(F)(F)F)[nH]c2c1
REMARK SMILES IDX 13 1 2 2 1 3 14 5 15 6 18 7 19 8 17 9 20 10 16 11 21 12
REMARK SMILES IDX 33 13 22 14 32 15 23 16 24 17 31 18 25 19 26 20 27 22 28 23
REMARK SMILES IDX 29 24 30 25 3 26 4 27 9 28 5 29 8 30 6 31 7 32 10 33 12 34
REMARK SMILES IDX 11 35
REMARK H PARENT 13 4 31 21
REMARK Flexibility Score: inf
ROOT
ATOM      1  N   UNL     1       4.166   0.657  -1.568  1.00  0.00    -0.345 N 
ATOM      2  C   UNL     1       2.991   1.278  -1.345  1.00  0.00     0.225 C 
ATOM      3  O   UNL     1       2.319   1.658  -2.280  1.00  0.00    -0.275 OA
ATOM      4  H   UNL     1       4.737   0.334  -0.774  1.00  0.00     0.164 HD
ENDROOT
BRANCH   1   5
ATOM      5  C   UNL     1       4.632   0.442  -2.941  1.00  0.00     0.143 C 
BRANCH   5   6
ATOM      6  C   UNL     1       5.354   1.673  -3.425  1.00  0.00    -0.021 A 
ATOM      7  C   UNL     1       6.680   3.930  -4.312  1.00  0.00     0.000 A 
ATOM      8  C   UNL     1       6.857   3.491  -3.014  1.00  0.00     0.000 A 
ATOM      9  C   UNL     1       5.840   3.242  -5.167  1.00  0.00     0.000 A 
ATOM     10  C   UNL     1       6.191   2.364  -2.569  1.00  0.00     0.006 A 
ATOM     11  C   UNL     1       5.176   2.113  -4.723  1.00  0.00     0.006 A 
ENDBRANCH   5   6
BRANCH   5  12
ATOM     12  C   UNL     1       5.569  -0.737  -2.974  1.00  0.00    -0.019 A 
ATOM     13  C   UNL     1       5.507  -1.632  -4.021  1.00  0.00     0.034 A 
ATOM     14  C   UNL     1       6.494  -0.912  -1.954  1.00  0.00     0.008 A 
ATOM     15  C   UNL     1       6.372  -2.717  -4.051  1.00  0.00     0.066 A 
ATOM     16  C   UNL     1       7.349  -1.977  -1.963  1.00  0.00     0.031 A 
ATOM     17  C   UNL     1       7.304  -2.897  -3.014  1.00  0.00     0.089 A 
ATOM     18  N   UNL     1       6.568  -3.767  -4.925  1.00  0.00    -0.334 N 
ATOM     19  N   UNL     1       8.005  -4.023  -3.304  1.00  0.00    -0.224 NA
ATOM     20  C   UNL     1       7.574  -4.531  -4.421  1.00  0.00     0.213 A 
ATOM     21  H   UNL     1       6.048  -3.940  -5.798  1.00  0.00     0.168 HD
BRANCH  20  22
ATOM     22  C   UNL     1       8.112  -5.784  -5.064  1.00  0.00     0.449 C 
ATOM     23  F   UNL     1       8.883  -6.491  -4.134  1.00  0.00    -0.163 F 
ATOM     24  F   UNL     1       7.046  -6.584  -5.490  1.00  0.00    -0.163 F 
ATOM     25  F   UNL     1       8.906  -5.441  -6.163  1.00  0.00    -0.163 F 
ENDBRANCH  20  22
ENDBRANCH   5  12
ENDBRANCH   1   5
BRANCH   2  26
ATOM     26  C   UNL     1       2.512   1.499   0.067  1.00  0.00     0.142 C 
BRANCH  26  27
ATOM     27  C   UNL     1       1.183   2.208   0.041  1.00  0.00     0.039 A 
ATOM     28  C   UNL     1       0.013   1.479  -0.067  1.00  0.00     0.273 A 
ATOM     29  C   UNL     1       1.133   3.587   0.125  1.00  0.00     0.011 A 
ATOM     30  C   UNL     1      -1.206   2.130  -0.096  1.00  0.00     0.086 A 
ATOM     31  C   UNL     1      -0.087   4.237   0.101  1.00  0.00     0.001 A 
ATOM     32  C   UNL     1      -1.256   3.508  -0.007  1.00  0.00     0.007 A 
BRANCH  28  33
ATOM     33  N   UNL     1       0.067   0.003  -0.157  1.00  0.00     0.063 N 
ATOM     34  O   UNL     1       0.962  -0.537  -0.781  1.00  0.00    -0.258 OA
ATOM     35  O   UNL     1      -0.785  -0.672   0.394  1.00  0.00    -0.258 OA
ENDBRANCH  28  33
ENDBRANCH  26  27
ENDBRANCH   2  26
TORSDOF 7
