REMARK SMILES CC(=O)c1ccccc1-c1cc(C(=O)N[C@H](CO)Cc2ccccc2)cc(C(=O)N[C@H](C)c2ccccc2)c1
REMARK SMILES IDX 27 1 39 2 10 3 11 4 12 5 26 6 28 7 30 8 29 10 31 11 32 12
REMARK SMILES IDX 33 13 38 14 34 15 37 16 35 17 36 18 13 19 14 20 15 21 16 23
REMARK SMILES IDX 19 24 20 25 25 26 21 27 24 28 22 29 23 30 17 31 18 32 9 34
REMARK SMILES IDX 4 35 8 36 5 37 7 38 6 39 2 40 3 41 1 42
REMARK H PARENT 30 9 15 22 18 33
REMARK Flexibility Score: inf
ROOT
ATOM      1  C   UNL     1      -3.406   3.090   5.120  1.00  0.00     0.041 A 
ATOM      2  C   UNL     1      -3.059   2.330   6.237  1.00  0.00     0.022 A 
ATOM      3  C   UNL     1      -2.245   1.209   6.092  1.00  0.00    -0.016 A 
ATOM      4  C   UNL     1      -1.778   0.846   4.831  1.00  0.00     0.022 A 
ATOM      5  C   UNL     1      -2.125   1.604   3.713  1.00  0.00     0.041 A 
ATOM      6  C   UNL     1      -2.934   2.730   3.859  1.00  0.00     0.027 A 
ENDROOT
BRANCH   1   7
ATOM      7  C   UNL     1      -4.270   4.280   5.275  1.00  0.00     0.251 C 
ATOM      8  N   UNL     1      -4.606   5.014   4.195  1.00  0.00    -0.346 N 
ATOM      9  H   UNL     1      -4.260   4.746   3.263  1.00  0.00     0.164 HD
ATOM     10  O   UNL     1      -4.678   4.596   6.375  1.00  0.00    -0.269 OA
BRANCH   8  11
ATOM     11  C   UNL     1      -5.462   6.193   4.348  1.00  0.00     0.109 C 
ATOM     12  C   UNL     1      -6.930   5.763   4.330  1.00  0.00     0.036 C 
BRANCH  11  13
ATOM     13  C   UNL     1      -5.204   7.151   3.214  1.00  0.00    -0.026 A 
ATOM     14  C   UNL     1      -5.161   8.511   3.455  1.00  0.00     0.006 A 
ATOM     15  C   UNL     1      -5.005   6.669   1.934  1.00  0.00     0.006 A 
ATOM     16  C   UNL     1      -4.925   9.390   2.414  1.00  0.00     0.000 A 
ATOM     17  C   UNL     1      -4.774   7.548   0.892  1.00  0.00     0.000 A 
ATOM     18  C   UNL     1      -4.732   8.909   1.133  1.00  0.00     0.000 A 
ENDBRANCH  11  13
ENDBRANCH   8  11
ENDBRANCH   1   7
BRANCH   5  19
ATOM     19  C   UNL     1      -1.628   1.219   2.375  1.00  0.00     0.251 C 
ATOM     20  O   UNL     1      -0.919   0.240   2.248  1.00  0.00    -0.269 OA
ATOM     21  N   UNL     1      -1.963   1.952   1.295  1.00  0.00    -0.347 N 
ATOM     22  H   UNL     1      -2.565   2.781   1.402  1.00  0.00     0.164 HD
BRANCH  21  23
ATOM     23  C   UNL     1      -1.472   1.570  -0.031  1.00  0.00     0.112 C 
BRANCH  23  24
ATOM     24  C   UNL     1      -2.423   2.108  -1.102  1.00  0.00     0.062 C 
BRANCH  24  25
ATOM     25  C   UNL     1      -3.765   1.436  -0.966  1.00  0.00    -0.046 A 
ATOM     26  C   UNL     1      -4.736   1.991  -0.153  1.00  0.00     0.004 A 
ATOM     27  C   UNL     1      -4.027   0.268  -1.657  1.00  0.00     0.004 A 
ATOM     28  C   UNL     1      -5.967   1.375  -0.028  1.00  0.00     0.000 A 
ATOM     29  C   UNL     1      -5.256  -0.351  -1.528  1.00  0.00     0.000 A 
ATOM     30  C   UNL     1      -6.227   0.204  -0.715  1.00  0.00     0.000 A 
ENDBRANCH  24  25
ENDBRANCH  23  24
BRANCH  23  31
ATOM     31  C   UNL     1      -0.076   2.159  -0.247  1.00  0.00     0.181 C 
BRANCH  31  32
ATOM     32  O   UNL     1      -0.159   3.585  -0.271  1.00  0.00    -0.394 OA
ATOM     33  H   UNL     1      -0.524   3.910   0.590  1.00  0.00     0.210 HD
ENDBRANCH  31  32
ENDBRANCH  23  31
ENDBRANCH  21  23
ENDBRANCH   5  19
BRANCH   3  34
ATOM     34  C   UNL     1      -1.877   0.402   7.279  1.00  0.00    -0.008 A 
ATOM     35  C   UNL     1      -1.208   1.003   8.364  1.00  0.00     0.025 A 
ATOM     36  C   UNL     1      -2.193  -0.952   7.332  1.00  0.00     0.009 A 
ATOM     37  C   UNL     1      -0.868   0.228   9.477  1.00  0.00     0.012 A 
ATOM     38  C   UNL     1      -1.844  -1.701   8.437  1.00  0.00     0.001 A 
ATOM     39  C   UNL     1      -1.186  -1.112   9.506  1.00  0.00     0.001 A 
BRANCH  35  40
ATOM     40  C   UNL     1      -0.872   2.432   8.326  1.00  0.00     0.160 C 
ATOM     41  O   UNL     1      -1.065   3.074   7.316  1.00  0.00    -0.294 OA
ATOM     42  C   UNL     1      -0.286   3.101   9.543  1.00  0.00     0.093 C 
ENDBRANCH  35  40
ENDBRANCH   3  34
TORSDOF 11
