REMARK SMILES CCOc1ccc([C@H]2[NH2+][C@@H](c3ccc(OCC)cc3)[C@@H]3C(=O)[C@H]2[C@H](c2ccc(OCC)cc2)N[C@H]3c2ccc(OCC)cc2)cc1
REMARK SMILES IDX 35 1 20 2 10 3 8 4 23 5 21 6 22 7 24 8 9 9 34 10 36 14 39 15
REMARK SMILES IDX 43 16 38 17 44 18 37 19 40 20 41 21 42 22 11 23 19 24 12 25
REMARK SMILES IDX 18 26 13 27 14 28 15 29 16 30 17 31 25 32 33 33 26 34 32 35
REMARK SMILES IDX 27 36 28 37 29 38 30 39 31 40 7 41 45 42 6 43 46 44 5 45
REMARK SMILES IDX 4 46 3 47 2 48 1 49
REMARK H PARENT 9 11 9 12 34 13
REMARK Flexibility Score: inf
ROOT
ATOM      1  C   UNL     1       0.198  -4.480  -0.301  1.00  0.00     0.101 C 
ATOM      2  C   UNL     1       0.312  -4.976  -1.752  1.00  0.00     0.141 C 
ATOM      3  C   UNL     1       0.384  -6.512  -1.724  1.00  0.00     0.226 C 
ATOM      4  C   UNL     1       2.804  -6.490  -1.437  1.00  0.00     0.226 C 
ATOM      5  C   UNL     1       2.854  -4.954  -1.451  1.00  0.00     0.141 C 
ATOM      6  C   UNL     1       1.659  -4.486  -2.275  1.00  0.00     0.155 C 
ATOM      7  O   UNL     1       1.768  -3.790  -3.255  1.00  0.00    -0.298 OA
ATOM      8  C   UNL     1       2.625  -4.446  -0.018  1.00  0.00     0.101 C 
ATOM      9  N   UNL     1       1.514  -6.939  -0.871  1.00  0.00    -0.333 N 
ATOM     10  N   UNL     1       1.336  -4.994   0.489  1.00  0.00    -0.301 NA
ATOM     11  H   UNL     1       1.516  -7.966  -0.797  1.00  0.00     0.347 HD
ATOM     12  H   UNL     1       1.399  -6.538   0.071  1.00  0.00     0.347 HD
ATOM     13  H   UNL     1       1.215  -4.722   1.475  1.00  0.00     0.123 HD
ENDROOT
BRANCH   1  14
ATOM     14  C   UNL     1       0.202  -2.973  -0.283  1.00  0.00    -0.030 A 
ATOM     15  C   UNL     1       0.209  -0.207  -0.249  1.00  0.00     0.119 A 
ATOM     16  C   UNL     1       0.530  -0.917   0.899  1.00  0.00     0.047 A 
ATOM     17  C   UNL     1      -0.122  -0.887  -1.412  1.00  0.00     0.047 A 
ATOM     18  C   UNL     1       0.526  -2.298   0.879  1.00  0.00     0.009 A 
ATOM     19  C   UNL     1      -0.120  -2.268  -1.428  1.00  0.00     0.009 A 
BRANCH  15  20
ATOM     20  O   UNL     1       0.212   1.152  -0.233  1.00  0.00    -0.494 OA
BRANCH  20  21
ATOM     21  C   UNL     1      -0.129   1.816  -1.451  1.00  0.00     0.226 C 
ATOM     22  C   UNL     1      -0.071   3.331  -1.239  1.00  0.00     0.049 C 
ENDBRANCH  20  21
ENDBRANCH  15  20
ENDBRANCH   1  14
BRANCH   3  23
ATOM     23  C   UNL     1      -0.895  -7.065  -1.151  1.00  0.00     0.010 A 
ATOM     24  C   UNL     1      -1.876  -7.553  -1.995  1.00  0.00     0.014 A 
ATOM     25  C   UNL     1      -1.084  -7.089   0.219  1.00  0.00     0.014 A 
ATOM     26  C   UNL     1      -3.049  -8.061  -1.472  1.00  0.00     0.047 A 
ATOM     27  C   UNL     1      -2.259  -7.590   0.747  1.00  0.00     0.047 A 
ATOM     28  C   UNL     1      -3.244  -8.081  -0.098  1.00  0.00     0.119 A 
BRANCH  28  29
ATOM     29  O   UNL     1      -4.397  -8.580   0.419  1.00  0.00    -0.494 OA
BRANCH  29  30
ATOM     30  C   UNL     1      -4.528  -8.569   1.842  1.00  0.00     0.226 C 
ATOM     31  C   UNL     1      -5.881  -9.166   2.234  1.00  0.00     0.049 C 
ENDBRANCH  29  30
ENDBRANCH  28  29
ENDBRANCH   3  23
BRANCH   8  32
ATOM     32  C   UNL     1       3.741  -4.930   0.872  1.00  0.00    -0.030 A 
ATOM     33  C   UNL     1       3.467  -5.798   1.912  1.00  0.00     0.009 A 
ATOM     34  C   UNL     1       5.038  -4.510   0.642  1.00  0.00     0.009 A 
ATOM     35  C   UNL     1       4.489  -6.244   2.729  1.00  0.00     0.047 A 
ATOM     36  C   UNL     1       6.062  -4.947   1.459  1.00  0.00     0.047 A 
ATOM     37  C   UNL     1       5.790  -5.819   2.504  1.00  0.00     0.119 A 
BRANCH  37  38
ATOM     38  O   UNL     1       6.797  -6.256   3.305  1.00  0.00    -0.494 OA
BRANCH  38  39
ATOM     39  C   UNL     1       8.091  -5.691   3.088  1.00  0.00     0.226 C 
ATOM     40  C   UNL     1       9.110  -6.387   3.992  1.00  0.00     0.049 C 
ENDBRANCH  38  39
ENDBRANCH  37  38
ENDBRANCH   8  32
BRANCH   4  41
ATOM     41  C   UNL     1       3.924  -7.022  -0.579  1.00  0.00     0.010 A 
ATOM     42  C   UNL     1       5.228  -6.635  -0.828  1.00  0.00     0.014 A 
ATOM     43  C   UNL     1       3.644  -7.890   0.460  1.00  0.00     0.014 A 
ATOM     44  C   UNL     1       6.255  -7.121  -0.043  1.00  0.00     0.047 A 
ATOM     45  C   UNL     1       4.669  -8.383   1.244  1.00  0.00     0.047 A 
ATOM     46  C   UNL     1       5.978  -7.997   0.996  1.00  0.00     0.119 A 
BRANCH  46  47
ATOM     47  O   UNL     1       6.987  -8.477   1.769  1.00  0.00    -0.494 OA
BRANCH  47  48
ATOM     48  C   UNL     1       6.644  -9.461   2.747  1.00  0.00     0.226 C 
ATOM     49  C   UNL     1       7.917  -9.969   3.427  1.00  0.00     0.049 C 
ENDBRANCH  47  48
ENDBRANCH  46  47
ENDBRANCH   4  41
TORSDOF 12
