REMARK SMILES COc1cc([C@@H]2CC([O-])=Nc3c2c(-c2ccc(Cl)cc2)nn3-c2nc(C)cc(C)n2)ccc1O
REMARK SMILES IDX 22 1 11 2 12 3 13 4 21 5 6 6 7 7 8 8 10 9 9 10 23 11 26 12
REMARK SMILES IDX 25 13 24 14 27 15 28 16 30 17 29 18 14 19 20 20 15 21 19 22
REMARK SMILES IDX 16 23 17 24 18 25 5 26 4 27 31 28 3 29 32 30 33 31 2 32 1 33
REMARK SMILES IDX 34 34
REMARK H PARENT 34 35
REMARK Flexibility Score: inf
ROOT
ATOM      1  N   UNL     1      -3.418   2.690  -0.342  1.00  0.00    -0.179 N 
ATOM      2  C   UNL     1      -2.878   3.663   0.435  1.00  0.00     0.162 A 
ATOM      3  C   UNL     1      -1.568   3.319   0.675  1.00  0.00     0.033 A 
ATOM      4  C   UNL     1      -1.311   2.116   0.020  1.00  0.00     0.099 A 
ATOM      5  N   UNL     1      -2.417   1.738  -0.595  1.00  0.00    -0.163 NA
ATOM      6  C   UNL     1      -0.666   4.178   1.525  1.00  0.00     0.060 C 
ATOM      7  C   UNL     1      -1.136   5.630   1.383  1.00  0.00     0.052 C 
ATOM      8  C   UNL     1      -2.633   5.729   1.410  1.00  0.00    -0.033 C 
ATOM      9  N   UNL     1      -3.420   4.809   0.938  1.00  0.00    -0.249 NA
ATOM     10  O   UNL     1      -3.191   6.830   1.953  1.00  0.00    -0.862 OA
ENDROOT
BRANCH   1  11
ATOM     11  C   UNL     1      -4.729   2.647  -0.809  1.00  0.00     0.253 A 
ATOM     12  C   UNL     1      -7.754   4.734  -0.546  1.00  0.00     0.067 C 
ATOM     13  C   UNL     1      -6.813   3.616  -0.915  1.00  0.00     0.043 A 
ATOM     14  N   UNL     1      -5.562   3.623  -0.485  1.00  0.00    -0.216 NA
ATOM     15  C   UNL     1      -7.249   2.564  -1.706  1.00  0.00     0.047 A 
ATOM     16  C   UNL     1      -6.351   1.556  -2.022  1.00  0.00     0.043 A 
ATOM     17  N   UNL     1      -5.113   1.629  -1.562  1.00  0.00    -0.216 NA
ATOM     18  C   UNL     1      -6.780   0.393  -2.879  1.00  0.00     0.067 C 
ENDBRANCH   1  11
BRANCH   4  19
ATOM     19  C   UNL     1      -0.017   1.389   0.010  1.00  0.00     0.002 A 
ATOM     20  C   UNL     1       0.002  -0.004   0.002  1.00  0.00     0.012 A 
ATOM     21  C   UNL     1       1.183   2.098   0.002  1.00  0.00     0.012 A 
ATOM     22  C   UNL     1       1.208  -0.675  -0.013  1.00  0.00     0.021 A 
ATOM     23  C   UNL     1       2.383   1.417  -0.013  1.00  0.00     0.021 A 
ATOM     24  C   UNL     1       2.397   0.033  -0.021  1.00  0.00     0.041 A 
ATOM     25  Cl  UNL     1       3.910  -0.817  -0.041  1.00  0.00    -0.084 Cl
ENDBRANCH   4  19
BRANCH   6  26
ATOM     26  C   UNL     1      -0.762   3.749   2.967  1.00  0.00    -0.036 A 
ATOM     27  C   UNL     1       0.366   3.306   3.631  1.00  0.00     0.054 A 
ATOM     28  C   UNL     1      -1.978   3.804   3.623  1.00  0.00     0.008 A 
ATOM     29  C   UNL     1       0.279   2.911   4.957  1.00  0.00     0.160 A 
ATOM     30  C   UNL     1      -2.073   3.407   4.943  1.00  0.00     0.050 A 
ATOM     31  C   UNL     1      -0.946   2.962   5.616  1.00  0.00     0.157 A 
BRANCH  29  32
ATOM     32  O   UNL     1       1.388   2.475   5.612  1.00  0.00    -0.493 OA
ATOM     33  C   UNL     1       2.610   2.450   4.873  1.00  0.00     0.278 C 
ENDBRANCH  29  32
BRANCH  31  34
ATOM     34  O   UNL     1      -1.036   2.576   6.917  1.00  0.00    -0.504 OA
ATOM     35  H   UNL     1      -1.728   1.868   6.924  1.00  0.00     0.293 HD
ENDBRANCH  31  34
ENDBRANCH   6  26
TORSDOF 5
