REMARK SMILES CCc1c(C(=O)N[C@@H](C)c2ccc(C#N)cc2)cnn1-c1ccc(O)nn1
REMARK SMILES IDX 5 1 6 2 7 3 4 5 3 6 20 7 19 8 18 9 2 10 1 11 21 12 27 13
REMARK SMILES IDX 22 14 26 15 23 16 24 17 25 18 8 20 9 21 10 22 17 23 11 24
REMARK SMILES IDX 16 25 12 26 13 27 14 28 15 29
REMARK H PARENT 7 4 25 19
REMARK Flexibility Score: inf
ROOT
ATOM      1  C   UNL     1      -3.266   2.981   0.040  1.00  0.00     0.255 C 
ATOM      2  O   UNL     1      -2.235   3.610  -0.100  1.00  0.00    -0.269 OA
ATOM      3  N   UNL     1      -4.426   3.472  -0.442  1.00  0.00    -0.345 N 
ATOM      4  H   UNL     1      -5.299   2.938  -0.324  1.00  0.00     0.164 HD
ENDROOT
BRANCH   1   5
ATOM      5  C   UNL     1      -3.248   1.681   0.735  1.00  0.00     0.081 A 
ATOM      6  C   UNL     1      -2.143   1.058   1.278  1.00  0.00     0.059 A 
ATOM      7  N   UNL     1      -2.559  -0.105   1.812  1.00  0.00    -0.217 N 
ATOM      8  N   UNL     1      -3.940  -0.214   1.614  1.00  0.00    -0.174 NA
ATOM      9  C   UNL     1      -4.360   0.841   0.972  1.00  0.00     0.149 A 
BRANCH   6  10
ATOM     10  C   UNL     1      -0.729   1.579   1.267  1.00  0.00     0.054 C 
ATOM     11  C   UNL     1      -0.013   1.086   0.008  1.00  0.00     0.011 C 
ENDBRANCH   6  10
BRANCH   7  12
ATOM     12  C   UNL     1      -1.748  -1.045   2.460  1.00  0.00     0.176 A 
ATOM     13  N   UNL     1      -0.463  -0.821   2.582  1.00  0.00    -0.127 NA
ATOM     14  C   UNL     1      -2.321  -2.222   2.979  1.00  0.00     0.057 A 
ATOM     15  N   UNL     1       0.366  -1.747   3.225  1.00  0.00    -0.110 NA
ATOM     16  C   UNL     1      -1.532  -3.137   3.603  1.00  0.00     0.074 A 
ATOM     17  C   UNL     1      -0.150  -2.886   3.729  1.00  0.00     0.231 A 
BRANCH  17  18
ATOM     18  O   UNL     1       0.573  -3.693   4.290  1.00  0.00    -0.492 OA
ATOM     19  H   UNL     1       0.430  -4.541   3.798  1.00  0.00     0.295 HD
ENDBRANCH  17  18
ENDBRANCH   7  12
ENDBRANCH   1   5
BRANCH   3  20
ATOM     20  C   UNL     1      -4.444   4.763  -1.133  1.00  0.00     0.109 C 
ATOM     21  C   UNL     1      -4.088   4.558  -2.607  1.00  0.00     0.036 C 
BRANCH  20  22
ATOM     22  C   UNL     1      -5.819   5.370  -1.028  1.00  0.00    -0.026 A 
ATOM     23  C   UNL     1      -5.957   6.729  -0.809  1.00  0.00     0.007 A 
ATOM     24  C   UNL     1      -6.938   4.567  -1.157  1.00  0.00     0.007 A 
ATOM     25  C   UNL     1      -7.213   7.292  -0.712  1.00  0.00     0.020 A 
ATOM     26  C   UNL     1      -8.200   5.115  -1.057  1.00  0.00     0.020 A 
ATOM     27  C   UNL     1      -8.346   6.486  -0.836  1.00  0.00     0.052 A 
BRANCH  27  28
ATOM     28  C   UNL     1      -9.653   7.063  -0.738  1.00  0.00     0.099 C 
ATOM     29  N   UNL     1     -10.690   7.521  -0.659  1.00  0.00    -0.192 NA
ENDBRANCH  27  28
ENDBRANCH  20  22
ENDBRANCH   3  20
TORSDOF 7
