REMARK SMILES Cc1ccc(C(=O)NC(=S)[N-]c2ccc(N3CCN(C(=O)c4cc5ccccc5o4)CC3)cc2)cc1C
REMARK SMILES IDX 11 1 9 2 10 3 8 4 6 5 7 6 5 8 1 9 2 10 36 11 3 12 35 13
REMARK SMILES IDX 37 14 4 15 12 16 34 17 13 18 33 19 14 20 15 21 16 22 32 23
REMARK SMILES IDX 17 24 31 25 18 26 19 27 20 28 21 29 22 30 30 31 23 32 29 33
REMARK SMILES IDX 24 34 28 35 25 36 27 37 26 38
REMARK H PARENT 8 7
REMARK Flexibility Score: inf
ROOT
ATOM      1  N   UNL     1       8.693  10.213   3.984  1.00  0.00    -0.427 NA
ENDROOT
BRANCH   1   2
ATOM      2  C   UNL     1       7.959  10.707   5.000  1.00  0.00     0.010 C 
ATOM      3  S   UNL     1       6.329  10.220   5.195  1.00  0.00    -0.090 S 
BRANCH   2   4
ATOM      4  N   UNL     1       8.508  11.585   5.863  1.00  0.00    -0.415 N 
ATOM      5  C   UNL     1       7.773  12.079   6.880  1.00  0.00     0.176 C 
ATOM      6  O   UNL     1       6.617  11.733   7.018  1.00  0.00    -0.294 OA
ATOM      7  H   UNL     1       9.488  11.878   5.746  1.00  0.00     0.030 HD
BRANCH   5   8
ATOM      8  C   UNL     1       8.375  13.041   7.826  1.00  0.00     0.018 A 
ATOM      9  C   UNL     1      10.115  15.827  10.564  1.00  0.00     0.044 C 
ATOM     10  C   UNL     1       9.502  14.845   9.600  1.00  0.00    -0.048 A 
ATOM     11  C   UNL     1       8.185  14.453   9.760  1.00  0.00    -0.047 A 
ATOM     12  C   UNL     1      10.259  14.339   8.557  1.00  0.00     0.004 A 
ATOM     13  C   UNL     1       7.617  13.555   8.880  1.00  0.00     0.015 A 
ATOM     14  C   UNL     1       7.369  15.009  10.899  1.00  0.00     0.044 C 
ATOM     15  C   UNL     1       9.706  13.436   7.674  1.00  0.00     0.012 A 
ENDBRANCH   5   8
ENDBRANCH   2   4
ENDBRANCH   1   2
BRANCH   1  16
ATOM     16  C   UNL     1       8.152   9.235   3.139  1.00  0.00    -0.041 A 
ATOM     17  C   UNL     1       8.903   8.117   2.800  1.00  0.00     0.006 A 
ATOM     18  C   UNL     1       6.864   9.383   2.641  1.00  0.00     0.006 A 
ATOM     19  C   UNL     1       8.367   7.151   1.972  1.00  0.00     0.026 A 
ATOM     20  C   UNL     1       6.330   8.419   1.808  1.00  0.00     0.026 A 
ATOM     21  C   UNL     1       7.082   7.301   1.470  1.00  0.00     0.037 A 
BRANCH  21  22
ATOM     22  N   UNL     1       6.541   6.325   0.626  1.00  0.00    -0.368 N 
ATOM     23  C   UNL     1       5.271   5.814   1.159  1.00  0.00     0.138 C 
ATOM     24  C   UNL     1       7.500   5.235   0.400  1.00  0.00     0.138 C 
ATOM     25  C   UNL     1       4.622   4.886   0.119  1.00  0.00     0.141 C 
ATOM     26  C   UNL     1       6.945   4.283  -0.665  1.00  0.00     0.141 C 
ATOM     27  N   UNL     1       5.601   3.853  -0.251  1.00  0.00    -0.332 N 
ATOM     28  C   UNL     1       5.273   2.546  -0.217  1.00  0.00     0.289 C 
ATOM     29  O   UNL     1       6.124   1.700  -0.415  1.00  0.00    -0.265 OA
BRANCH  28  30
ATOM     30  C   UNL     1       3.887   2.143   0.060  1.00  0.00     0.192 A 
ATOM     31  O   UNL     1       2.836   2.985   0.147  1.00  0.00    -0.451 OA
ATOM     32  C   UNL     1       3.470   0.867   0.265  1.00  0.00     0.065 A 
ATOM     33  C   UNL     1       1.700   2.309   0.410  1.00  0.00     0.135 A 
ATOM     34  C   UNL     1       2.029   0.944   0.500  1.00  0.00     0.021 A 
ATOM     35  C   UNL     1       0.379   2.701   0.591  1.00  0.00     0.048 A 
ATOM     36  C   UNL     1       1.034   0.000   0.768  1.00  0.00     0.012 A 
ATOM     37  C   UNL     1      -0.588   1.755   0.854  1.00  0.00     0.004 A 
ATOM     38  C   UNL     1      -0.259   0.409   0.937  1.00  0.00     0.001 A 
ENDBRANCH  28  30
ENDBRANCH  21  22
ENDBRANCH   1  16
TORSDOF 6
