REMARK SMILES NC(=[NH2+])c1ccc2scc([C@@H](Cc3ccccc3)C(=O)N[C@H]3CCCC[C@H]3C(=O)NCc3ccccc3)c2c1
REMARK SMILES IDX 22 1 23 2 24 3 25 4 26 5 27 6 21 7 19 8 20 9 11 11 12 12
REMARK SMILES IDX 13 13 16 14 17 15 15 16 18 17 14 18 10 19 38 20 9 21 7 22
REMARK SMILES IDX 39 23 8 24 6 25 4 26 5 27 2 28 1 29 3 30 28 35 29 36 30 37
REMARK SMILES IDX 31 39 32 40 37 41 33 42 36 43 34 44 35 45
REMARK H PARENT 21 10 1 31 1 32 3 33 3 34 30 38
REMARK Flexibility Score: inf
ROOT
ATOM      1  C   UNL     1      -2.422  -0.488  -1.140  1.00  0.00     0.094 C 
ATOM      2  C   UNL     1      -2.310  -0.644  -2.658  1.00  0.00     0.026 C 
ATOM      3  C   UNL     1      -1.061   0.087  -3.155  1.00  0.00     0.002 C 
ATOM      4  C   UNL     1       0.179  -0.511  -2.488  1.00  0.00     0.001 C 
ATOM      5  C   UNL     1       0.067  -0.355  -0.971  1.00  0.00     0.015 C 
ATOM      6  C   UNL     1      -1.181  -1.086  -0.473  1.00  0.00     0.101 C 
ENDROOT
BRANCH   1   7
ATOM      7  N   UNL     1      -2.521   0.934  -0.802  1.00  0.00    -0.352 N 
ATOM      8  C   UNL     1      -3.709   1.565  -0.884  1.00  0.00     0.228 C 
ATOM      9  O   UNL     1      -4.677   0.980  -1.323  1.00  0.00    -0.274 OA
ATOM     10  H   UNL     1      -1.683   1.451  -0.501  1.00  0.00     0.163 HD
BRANCH   8  11
ATOM     11  C   UNL     1      -3.835   2.996  -0.430  1.00  0.00     0.114 C 
BRANCH  11  12
ATOM     12  C   UNL     1      -5.204   3.207   0.219  1.00  0.00     0.053 C 
BRANCH  12  13
ATOM     13  C   UNL     1      -5.287   2.399   1.489  1.00  0.00    -0.047 A 
ATOM     14  C   UNL     1      -5.441   0.917   3.817  1.00  0.00     0.000 A 
ATOM     15  C   UNL     1      -4.867   2.174   3.835  1.00  0.00     0.000 A 
ATOM     16  C   UNL     1      -5.939   0.400   2.635  1.00  0.00     0.000 A 
ATOM     17  C   UNL     1      -4.790   2.915   2.671  1.00  0.00     0.004 A 
ATOM     18  C   UNL     1      -5.857   1.139   1.470  1.00  0.00     0.004 A 
ENDBRANCH  12  13
ENDBRANCH  11  12
BRANCH  11  19
ATOM     19  C   UNL     1      -3.696   3.914  -1.618  1.00  0.00    -0.017 A 
ATOM     20  C   UNL     1      -2.632   4.907  -1.659  1.00  0.00    -0.003 A 
ATOM     21  C   UNL     1      -4.553   3.827  -2.644  1.00  0.00     0.070 A 
ATOM     22  C   UNL     1      -2.610   5.698  -2.830  1.00  0.00     0.035 A 
ATOM     23  C   UNL     1      -1.626   5.163  -0.702  1.00  0.00     0.026 A 
ATOM     24  S   UNL     1      -3.987   5.088  -3.770  1.00  0.00    -0.143 S 
ATOM     25  C   UNL     1      -1.667   6.684  -3.039  1.00  0.00     0.020 A 
ATOM     26  C   UNL     1      -0.686   6.154  -0.923  1.00  0.00     0.063 A 
ATOM     27  C   UNL     1      -0.706   6.920  -2.096  1.00  0.00     0.018 A 
BRANCH  26  28
ATOM     28  C   UNL     1       0.355   6.410   0.096  1.00  0.00     0.270 C 
ATOM     29  N   UNL     1       1.297   7.395  -0.113  1.00  0.00    -0.287 N 
ATOM     30  N   UNL     1       0.329   5.659   1.187  1.00  0.00    -0.287 N 
ATOM     31  H   UNL     1       1.275   7.953  -0.979  1.00  0.00     0.302 HD
ATOM     32  H   UNL     1       2.022   7.573   0.596  1.00  0.00     0.302 HD
ATOM     33  H   UNL     1      -0.379   4.925   1.333  1.00  0.00     0.302 HD
ATOM     34  H   UNL     1       1.045   5.820   1.909  1.00  0.00     0.302 HD
ENDBRANCH  26  28
ENDBRANCH  11  19
ENDBRANCH   8  11
ENDBRANCH   1   7
BRANCH   6  35
ATOM     35  C   UNL     1      -1.292  -0.932   1.022  1.00  0.00     0.225 C 
ATOM     36  O   UNL     1      -2.219  -0.316   1.501  1.00  0.00    -0.275 OA
ATOM     37  N   UNL     1      -0.359  -1.480   1.826  1.00  0.00    -0.352 N 
ATOM     38  H   UNL     1       0.428  -2.004   1.419  1.00  0.00     0.163 HD
BRANCH  37  39
ATOM     39  C   UNL     1      -0.467  -1.331   3.279  1.00  0.00     0.151 C 
BRANCH  39  40
ATOM     40  C   UNL     1       0.692  -2.031   3.943  1.00  0.00    -0.029 A 
ATOM     41  C   UNL     1       1.865  -1.343   4.191  1.00  0.00     0.005 A 
ATOM     42  C   UNL     1       0.579  -3.359   4.309  1.00  0.00     0.005 A 
ATOM     43  C   UNL     1       2.927  -1.984   4.800  1.00  0.00     0.000 A 
ATOM     44  C   UNL     1       1.643  -4.002   4.914  1.00  0.00     0.000 A 
ATOM     45  C   UNL     1       2.816  -3.314   5.161  1.00  0.00     0.000 A 
ENDBRANCH  39  40
ENDBRANCH  37  39
ENDBRANCH   6  35
TORSDOF 9
