REMARK SMILES CN(C)S(=O)(=O)c1cccc(NC(=O)CN[C@@H](c2ccc3c(c2)CCC3)c2cccs2)c1
REMARK SMILES IDX 12 1 13 2 14 3 11 5 7 6 32 7 8 8 9 9 10 10 4 11 5 12 6 13
REMARK SMILES IDX 2 14 1 15 3 16 15 17 16 18 17 20 18 21 23 22 19 23 22 24
REMARK SMILES IDX 20 25 21 26 24 27 26 28 25 29 27 30 31 31 28 32 30 33 29 34
REMARK H PARENT 12 4 16 19
REMARK Flexibility Score: inf
ROOT
ATOM      1  N   UNL     1      -0.242   1.246   2.466  1.00  0.00    -0.325 N 
ATOM      2  C   UNL     1      -0.717   1.573   1.248  1.00  0.00     0.238 C 
ATOM      3  O   UNL     1      -1.709   2.264   1.150  1.00  0.00    -0.273 OA
ATOM      4  H   UNL     1       0.557   0.601   2.551  1.00  0.00     0.169 HD
ENDROOT
BRANCH   1   5
ATOM      5  C   UNL     1      -0.833   1.782   3.615  1.00  0.00     0.042 A 
ATOM      6  C   UNL     1      -2.784   2.535   4.788  1.00  0.00     0.084 A 
ATOM      7  C   UNL     1      -2.204   2.006   3.652  1.00  0.00     0.047 A 
ATOM      8  C   UNL     1      -2.003   2.842   5.887  1.00  0.00     0.022 A 
ATOM      9  C   UNL     1      -0.639   2.620   5.853  1.00  0.00     0.004 A 
ATOM     10  C   UNL     1      -0.053   2.086   4.722  1.00  0.00     0.026 A 
BRANCH   6  11
ATOM     11  S   UNL     1      -4.523   2.819   4.837  1.00  0.00     0.242 S 
ATOM     12  O   UNL     1      -4.742   3.828   5.813  1.00  0.00    -0.207 OA
ATOM     13  O   UNL     1      -4.950   2.957   3.488  1.00  0.00    -0.207 OA
BRANCH  11  14
ATOM     14  N   UNL     1      -5.228   1.437   5.417  1.00  0.00    -0.204 NA
ATOM     15  C   UNL     1      -5.435   1.270   6.857  1.00  0.00     0.124 C 
ATOM     16  C   UNL     1      -5.646   0.383   4.489  1.00  0.00     0.124 C 
ENDBRANCH  11  14
ENDBRANCH   6  11
ENDBRANCH   1   5
BRANCH   2  17
ATOM     17  C   UNL     1      -0.016   1.080   0.008  1.00  0.00     0.183 C 
BRANCH  17  18
ATOM     18  N   UNL     1      -0.725   1.570  -1.182  1.00  0.00    -0.297 NA
ATOM     19  H   UNL     1      -0.737   2.600  -1.171  1.00  0.00     0.124 HD
BRANCH  18  20
ATOM     20  C   UNL     1      -0.068   1.108  -2.413  1.00  0.00     0.125 C 
BRANCH  20  21
ATOM     21  C   UNL     1      -1.073   1.072  -3.535  1.00  0.00    -0.025 A 
ATOM     22  C   UNL     1      -1.056   0.035  -4.446  1.00  0.00     0.009 A 
ATOM     23  C   UNL     1      -2.010   2.082  -3.657  1.00  0.00     0.006 A 
ATOM     24  C   UNL     1      -1.981  -0.004  -5.476  1.00  0.00    -0.044 A 
ATOM     25  C   UNL     1      -2.930   2.048  -4.687  1.00  0.00     0.004 A 
ATOM     26  C   UNL     1      -2.917   1.005  -5.598  1.00  0.00    -0.045 A 
ATOM     27  C   UNL     1      -2.173  -1.017  -6.584  1.00  0.00     0.036 C 
ATOM     28  C   UNL     1      -3.803   0.739  -6.797  1.00  0.00     0.036 C 
ATOM     29  C   UNL     1      -3.036  -0.299  -7.643  1.00  0.00     0.010 C 
ENDBRANCH  20  21
BRANCH  20  30
ATOM     30  C   UNL     1       1.051   2.051  -2.770  1.00  0.00     0.026 A 
ATOM     31  S   UNL     1       1.095   3.833  -2.666  1.00  0.00    -0.147 S 
ATOM     32  C   UNL     1       2.287   1.767  -3.247  1.00  0.00     0.017 A 
ATOM     33  C   UNL     1       2.756   4.079  -3.273  1.00  0.00     0.065 A 
ATOM     34  C   UNL     1       3.159   2.807  -3.511  1.00  0.00     0.012 A 
ENDBRANCH  20  30
ENDBRANCH  18  20
ENDBRANCH  17  18
ENDBRANCH   2  17
TORSDOF 8
