REMARK SMILES CC(C)NC(=O)[C@@H](Sc1nc2scc(-c3ccccc3)c2c(=O)n1N)c1ccccc1
REMARK SMILES IDX 7 1 5 2 4 3 6 5 2 6 1 7 3 8 26 9 31 10 27 11 30 12 28 13
REMARK SMILES IDX 29 14 8 15 9 16 24 17 10 18 22 19 11 20 21 21 23 22 12 23
REMARK SMILES IDX 14 24 13 25 25 26 15 29 20 30 16 31 19 32 17 33 18 34
REMARK H PARENT 4 4 25 27 25 28
REMARK Flexibility Score: inf
ROOT
ATOM      1  C   UNL     1      -2.482   0.853   0.018  1.00  0.00     0.174 C 
ENDROOT
BRANCH   1   2
ATOM      2  C   UNL     1      -1.187   1.624   0.017  1.00  0.00     0.238 C 
ATOM      3  N   UNL     1      -0.011   0.966   0.007  1.00  0.00    -0.353 N 
ATOM      4  H   UNL     1       0.003  -0.064   0.006  1.00  0.00     0.163 HD
ATOM      5  O   UNL     1      -1.204   2.837   0.023  1.00  0.00    -0.273 OA
BRANCH   3   6
ATOM      6  C   UNL     1       1.248   1.716  -0.001  1.00  0.00     0.075 C 
ATOM      7  C   UNL     1       2.361   0.850   0.594  1.00  0.00     0.030 C 
ATOM      8  C   UNL     1       1.608   2.092  -1.439  1.00  0.00     0.030 C 
ENDBRANCH   3   6
ENDBRANCH   1   2
BRANCH   1   9
ATOM      9  C   UNL     1      -2.794   0.391  -1.382  1.00  0.00    -0.025 A 
ATOM     10  C   UNL     1      -2.915  -0.959  -1.654  1.00  0.00     0.005 A 
ATOM     11  C   UNL     1      -2.964   1.318  -2.393  1.00  0.00     0.005 A 
ATOM     12  C   UNL     1      -3.202  -1.382  -2.938  1.00  0.00     0.000 A 
ATOM     13  C   UNL     1      -3.246   0.895  -3.679  1.00  0.00     0.000 A 
ATOM     14  C   UNL     1      -3.367  -0.455  -3.951  1.00  0.00     0.000 A 
ENDBRANCH   1   9
BRANCH   1  15
ATOM     15  S   UNL     1      -3.818   1.918   0.614  1.00  0.00    -0.068 SA
BRANCH  15  16
ATOM     16  C   UNL     1      -5.141   0.755   0.658  1.00  0.00     0.192 A 
ATOM     17  N   UNL     1      -6.379   1.158   1.066  1.00  0.00    -0.202 N 
ATOM     18  N   UNL     1      -4.923  -0.491   0.291  1.00  0.00    -0.211 NA
ATOM     19  C   UNL     1      -7.413   0.298   1.111  1.00  0.00     0.282 A 
ATOM     20  C   UNL     1      -5.900  -1.391   0.318  1.00  0.00     0.132 A 
ATOM     21  C   UNL     1      -7.205  -1.062   0.724  1.00  0.00     0.086 A 
ATOM     22  O   UNL     1      -8.513   0.674   1.478  1.00  0.00    -0.267 OA
ATOM     23  S   UNL     1      -6.006  -3.116  -0.082  1.00  0.00    -0.123 S 
ATOM     24  C   UNL     1      -8.159  -2.166   0.689  1.00  0.00     0.008 A 
ATOM     25  C   UNL     1      -7.731  -3.384   0.281  1.00  0.00     0.076 A 
BRANCH  17  26
ATOM     26  N   UNL     1      -6.573   2.459   1.435  1.00  0.00    -0.334 N 
ATOM     27  H   UNL     1      -5.793   3.131   1.407  1.00  0.00     0.178 HD
ATOM     28  H   UNL     1      -7.506   2.768   1.744  1.00  0.00     0.178 HD
ENDBRANCH  17  26
BRANCH  24  29
ATOM     29  C   UNL     1      -9.570  -1.958   1.091  1.00  0.00    -0.017 A 
ATOM     30  C   UNL     1     -10.605  -2.390   0.263  1.00  0.00     0.009 A 
ATOM     31  C   UNL     1      -9.868  -1.334   2.302  1.00  0.00     0.009 A 
ATOM     32  C   UNL     1     -11.917  -2.193   0.643  1.00  0.00     0.001 A 
ATOM     33  C   UNL     1     -11.183  -1.137   2.669  1.00  0.00     0.001 A 
ATOM     34  C   UNL     1     -12.206  -1.568   1.843  1.00  0.00     0.000 A 
ENDBRANCH  24  29
ENDBRANCH  15  16
ENDBRANCH   1  15
TORSDOF 7
