REMARK SMILES CC(C)[C@H](NC(=O)OC(C)(C)C)C(=O)Oc1cc(O)c2c(=O)c3ccc(Cl)cc3oc2c1
REMARK SMILES IDX 4 1 2 2 1 3 3 4 13 5 14 6 15 7 16 8 32 9 17 10 31 11 18 12
REMARK SMILES IDX 20 13 30 14 21 15 29 16 23 17 22 18 28 19 24 20 26 21 25 22
REMARK SMILES IDX 27 23 19 24 5 26 6 27 7 29 8 30 9 31 10 32 11 33 12 34
REMARK H PARENT 19 25 5 28
REMARK Flexibility Score: inf
ROOT
ATOM      1  C   UNL     1      -0.028   1.113   0.033  1.00  0.00     0.198 C 
ENDROOT
BRANCH   1   2
ATOM      2  C   UNL     1      -0.776   1.554   1.292  1.00  0.00     0.017 C 
ATOM      3  C   UNL     1      -2.195   0.981   1.270  1.00  0.00     0.010 C 
ATOM      4  C   UNL     1      -0.038   1.040   2.530  1.00  0.00     0.010 C 
ENDBRANCH   1   2
BRANCH   1   5
ATOM      5  C   UNL     1      -0.756   1.619  -1.187  1.00  0.00     0.334 C 
ATOM      6  O   UNL     1      -0.197   2.362  -1.958  1.00  0.00    -0.249 OA
BRANCH   5   7
ATOM      7  O   UNL     1      -2.025   1.244  -1.415  1.00  0.00    -0.425 OA
BRANCH   7   8
ATOM      8  C   UNL     1      -2.653   1.811  -2.477  1.00  0.00     0.138 A 
ATOM      9  C   UNL     1      -3.576   2.823  -2.268  1.00  0.00     0.095 A 
ATOM     10  C   UNL     1      -2.368   1.366  -3.763  1.00  0.00     0.094 A 
ATOM     11  C   UNL     1      -4.222   3.414  -3.345  1.00  0.00     0.146 A 
ATOM     12  C   UNL     1      -3.003   1.937  -4.850  1.00  0.00     0.134 A 
ATOM     13  C   UNL     1      -3.934   2.965  -4.645  1.00  0.00     0.107 A 
ATOM     14  O   UNL     1      -5.115   4.403  -3.133  1.00  0.00    -0.455 OA
ATOM     15  C   UNL     1      -4.627   3.593  -5.783  1.00  0.00     0.204 A 
ATOM     16  C   UNL     1      -5.788   5.023  -4.123  1.00  0.00     0.140 A 
ATOM     17  C   UNL     1      -5.590   4.667  -5.465  1.00  0.00     0.066 A 
ATOM     18  O   UNL     1      -4.416   3.243  -6.930  1.00  0.00    -0.288 OA
ATOM     19  C   UNL     1      -6.694   6.034  -3.818  1.00  0.00     0.068 A 
ATOM     20  C   UNL     1      -6.295   5.318  -6.479  1.00  0.00     0.017 A 
ATOM     21  C   UNL     1      -7.384   6.672  -4.828  1.00  0.00     0.044 A 
ATOM     22  C   UNL     1      -7.187   6.316  -6.156  1.00  0.00     0.021 A 
ATOM     23  Cl  UNL     1      -8.512   7.931  -4.435  1.00  0.00    -0.084 Cl
BRANCH  12  24
ATOM     24  O   UNL     1      -2.727   1.506  -6.106  1.00  0.00    -0.507 OA
ATOM     25  H   UNL     1      -2.913   0.534  -6.087  1.00  0.00     0.293 HD
ENDBRANCH  12  24
ENDBRANCH   7   8
ENDBRANCH   5   7
ENDBRANCH   1   5
BRANCH   1  26
ATOM     26  N   UNL     1       1.330   1.662   0.054  1.00  0.00    -0.308 N 
ATOM     27  C   UNL     1       2.310   1.009   0.708  1.00  0.00     0.408 C 
ATOM     28  H   UNL     1       1.535   2.547  -0.431  1.00  0.00     0.168 HD
ATOM     29  O   UNL     1       2.068  -0.035   1.281  1.00  0.00    -0.225 OA
BRANCH  27  30
ATOM     30  O   UNL     1       3.558   1.513   0.728  1.00  0.00    -0.444 OA
BRANCH  30  31
ATOM     31  C   UNL     1       4.564   0.756   1.452  1.00  0.00     0.106 C 
ATOM     32  C   UNL     1       4.694  -0.638   0.837  1.00  0.00     0.056 C 
ATOM     33  C   UNL     1       5.909   1.480   1.364  1.00  0.00     0.056 C 
ATOM     34  C   UNL     1       4.149   0.630   2.919  1.00  0.00     0.056 C 
ENDBRANCH  30  31
ENDBRANCH  27  30
ENDBRANCH   1  26
TORSDOF 8
