REMARK SMILES COCCNC(=O)c1c(NC(=O)CN2CCC[N@@H+](Cc3ccccc3C)CC2)sc2c1CCCC2
REMARK SMILES IDX 13 1 14 2 28 3 27 4 18 5 19 7 20 8 26 9 25 10 24 11 21 12
REMARK SMILES IDX 23 13 22 14 17 15 16 16 15 18 11 20 12 21 10 22 9 24 29 25
REMARK SMILES IDX 8 26 30 27 31 28 35 29 32 30 34 31 33 32 6 33 7 34 5 35 4 37
REMARK SMILES IDX 3 38 2 39 1 40
REMARK H PARENT 18 6 10 23 5 36
REMARK Flexibility Score: 90.00
ROOT
ATOM      1  C   UNL     1      -1.723   1.335  -5.534  1.00  0.00     0.185 C 
ENDROOT
BRANCH   1   2
ATOM      2  N   UNL     1      -1.717   1.329  -4.065  1.00  0.00    -0.289 NA
BRANCH   2   3
ATOM      3  C   UNL     1      -0.686   2.201  -3.548  1.00  0.00     0.146 C 
BRANCH   3   4
ATOM      4  C   UNL     1      -0.018   1.519  -2.337  1.00  0.00     0.278 C 
BRANCH   4   5
ATOM      5  N   UNL     1      -0.792   1.633  -1.176  1.00  0.00    -0.330 N 
ATOM      6  H   UNL     1      -0.979   2.640  -1.064  1.00  0.00     0.348 HD
BRANCH   5   7
ATOM      7  C   UNL     1      -0.054   1.148  -0.002  1.00  0.00     0.299 C 
BRANCH   7   8
ATOM      8  C   UNL     1      -0.728   1.641   1.253  1.00  0.00     0.009 A 
ATOM      9  C   UNL     1       0.196   3.918   0.781  1.00  0.00     0.045 C 
ATOM     10  C   UNL     1      -0.609   2.966   1.628  1.00  0.00    -0.042 A 
ATOM     11  C   UNL     1      -1.230   3.418   2.777  1.00  0.00     0.004 A 
ATOM     12  C   UNL     1      -1.461   0.765   2.033  1.00  0.00     0.010 A 
ATOM     13  C   UNL     1      -1.963   2.544   3.556  1.00  0.00     0.000 A 
ATOM     14  C   UNL     1      -2.079   1.217   3.184  1.00  0.00     0.001 A 
ENDBRANCH   7   8
ENDBRANCH   5   7
BRANCH   5  15
ATOM     15  C   UNL     1      -2.120   0.988  -1.271  1.00  0.00     0.263 C 
BRANCH  15  16
ATOM     16  C   UNL     1      -3.048   1.912  -2.020  1.00  0.00     0.077 CG0
ATOM     17  G   UNL     1      -3.067   1.614  -3.527  1.00  0.00     0.000 G0
ENDBRANCH  15  16
ENDBRANCH   5  15
ENDBRANCH   4   5
ENDBRANCH   3   4
ENDBRANCH   2   3
BRANCH   2  18
ATOM     18  C   UNL     1      -3.067   1.614  -3.527  1.00  0.00     0.091 CG0
ATOM     19  G   UNL     1      -3.048   1.912  -2.020  1.00  0.00     0.000 G0
ENDBRANCH   2  18
ENDBRANCH   1   2
BRANCH   1  20
ATOM     20  C   UNL     1      -2.632   0.244  -6.037  1.00  0.00     0.239 C 
ATOM     21  O   UNL     1      -3.217  -0.469  -5.249  1.00  0.00    -0.273 OA
ATOM     22  N   UNL     1      -2.795   0.059  -7.362  1.00  0.00    -0.316 N 
ATOM     23  H   UNL     1      -2.298   0.665  -8.031  1.00  0.00     0.170 HD
BRANCH  22  24
ATOM     24  C   UNL     1      -3.631  -0.945  -7.825  1.00  0.00     0.108 A 
ATOM     25  S   UNL     1      -4.564  -2.079  -6.904  1.00  0.00    -0.122 S 
ATOM     26  C   UNL     1      -3.929  -1.283  -9.137  1.00  0.00     0.078 A 
ATOM     27  C   UNL     1      -5.316  -2.975  -8.233  1.00  0.00     0.011 A 
ATOM     28  C   UNL     1      -4.841  -2.392  -9.355  1.00  0.00    -0.019 A 
ATOM     29  C   UNL     1      -6.271  -4.126  -8.147  1.00  0.00     0.047 C 
ATOM     30  C   UNL     1      -5.261  -2.887 -10.734  1.00  0.00     0.037 C 
ATOM     31  C   UNL     1      -6.927  -4.313  -9.523  1.00  0.00     0.006 C 
ATOM     32  C   UNL     1      -5.836  -4.298 -10.597  1.00  0.00     0.005 C 
BRANCH  26  33
ATOM     33  C   UNL     1      -3.340  -0.551 -10.263  1.00  0.00     0.254 C 
ATOM     34  O   UNL     1      -2.283  -0.918 -10.742  1.00  0.00    -0.269 OA
ATOM     35  N   UNL     1      -3.970   0.529 -10.767  1.00  0.00    -0.350 N 
ATOM     36  H   UNL     1      -4.864   0.840 -10.362  1.00  0.00     0.163 HD
BRANCH  35  37
ATOM     37  C   UNL     1      -3.382   1.261 -11.892  1.00  0.00     0.144 C 
BRANCH  37  38
ATOM     38  C   UNL     1      -4.290   2.434 -12.267  1.00  0.00     0.181 C 
BRANCH  38  39
ATOM     39  O   UNL     1      -4.330   3.369 -11.188  1.00  0.00    -0.383 OA
ATOM     40  C   UNL     1      -5.155   4.509 -11.437  1.00  0.00     0.194 C 
ENDBRANCH  38  39
ENDBRANCH  37  38
ENDBRANCH  35  37
ENDBRANCH  26  33
ENDBRANCH  22  24
ENDBRANCH   1  20
TORSDOF 9
