REMARK SMILES C=CCn1c(SCC(=O)Nc2sc3c(c2C(=O)OC)CCC3)nc2sc(CC)cc2c1=O
REMARK SMILES IDX 7 1 6 2 5 3 26 4 25 5 29 6 24 7 30 8 23 9 31 10 4 11 32 12
REMARK SMILES IDX 27 13 28 14 3 15 2 16 1 17 8 18 9 19 10 20 11 22 12 23 15 24
REMARK SMILES IDX 13 25 14 26 22 27 20 28 21 29 16 30 17 31 18 32 19 33
REMARK H PARENT 10 21
REMARK Flexibility Score: inf
ROOT
ATOM      1  C   UNL     1       0.989   5.117   2.146  1.00  0.00     0.178 C 
ENDROOT
BRANCH   1   2
ATOM      2  S   UNL     1       0.951   3.699   1.021  1.00  0.00    -0.078 SA
BRANCH   2   3
ATOM      3  C   UNL     1      -0.335   2.752   1.766  1.00  0.00     0.173 A 
ATOM      4  C   UNL     1      -3.886   1.266   4.783  1.00  0.00     0.007 A 
ATOM      5  S   UNL     1      -2.924   2.765   4.862  1.00  0.00    -0.120 S 
ATOM      6  C   UNL     1      -3.404   0.644   3.697  1.00  0.00     0.031 A 
ATOM      7  C   UNL     1      -1.902   2.513   3.433  1.00  0.00     0.132 A 
ATOM      8  C   UNL     1      -2.337   1.270   2.935  1.00  0.00     0.077 A 
ATOM      9  N   UNL     1      -0.935   3.208   2.847  1.00  0.00    -0.213 NA
ATOM     10  C   UNL     1      -1.671   0.805   1.758  1.00  0.00     0.263 A 
ATOM     11  N   UNL     1      -0.698   1.558   1.213  1.00  0.00    -0.283 N 
ATOM     12  O   UNL     1      -1.981  -0.262   1.254  1.00  0.00    -0.268 OA
BRANCH   4  13
ATOM     13  C   UNL     1      -4.978   0.808   5.714  1.00  0.00     0.043 C 
ATOM     14  C   UNL     1      -4.368  -0.019   6.848  1.00  0.00     0.010 C 
ENDBRANCH   4  13
BRANCH  11  15
ATOM     15  C   UNL     1      -0.013   1.086   0.008  1.00  0.00     0.155 C 
BRANCH  15  16
ATOM     16  C   UNL     1      -0.742   1.585  -1.213  1.00  0.00    -0.013 C 
ATOM     17  C   UNL     1      -0.098   2.269  -2.126  1.00  0.00     0.006 C 
ENDBRANCH  15  16
ENDBRANCH  11  15
ENDBRANCH   2   3
ENDBRANCH   1   2
BRANCH   1  18
ATOM     18  C   UNL     1       2.046   6.090   1.692  1.00  0.00     0.235 C 
ATOM     19  O   UNL     1       2.709   5.849   0.705  1.00  0.00    -0.274 OA
ATOM     20  N   UNL     1       2.256   7.228   2.382  1.00  0.00    -0.316 N 
ATOM     21  H   UNL     1       1.693   7.433   3.220  1.00  0.00     0.170 HD
BRANCH  20  22
ATOM     22  C   UNL     1       3.228   8.123   1.965  1.00  0.00     0.110 A 
ATOM     23  S   UNL     1       4.289   8.001   0.603  1.00  0.00    -0.122 S 
ATOM     24  C   UNL     1       3.584   9.335   2.533  1.00  0.00     0.098 A 
ATOM     25  C   UNL     1       5.185   9.523   0.795  1.00  0.00     0.011 A 
ATOM     26  C   UNL     1       4.658  10.094   1.892  1.00  0.00    -0.017 A 
ATOM     27  C   UNL     1       6.279  10.361   0.192  1.00  0.00     0.047 C 
ATOM     28  C   UNL     1       5.373  11.424   2.137  1.00  0.00     0.038 C 
ATOM     29  C   UNL     1       6.673  11.350   1.311  1.00  0.00     0.010 C 
BRANCH  24  30
ATOM     30  C   UNL     1       2.912   9.837   3.734  1.00  0.00     0.341 C 
ATOM     31  O   UNL     1       3.345   9.554   4.835  1.00  0.00    -0.246 OA
BRANCH  30  32
ATOM     32  O   UNL     1       1.814  10.612   3.619  1.00  0.00    -0.465 OA
ATOM     33  C   UNL     1       1.201  11.073   4.851  1.00  0.00     0.282 C 
ENDBRANCH  30  32
ENDBRANCH  24  30
ENDBRANCH  20  22
ENDBRANCH   1  18
TORSDOF 9
