REMARK SMILES Nn1c(NN=C(Cc2ccccc2)Cc2ccccc2)nnc1SCC(=O)N[C@@H]1CCCc2ccccc21
REMARK SMILES IDX 3 1 21 2 22 3 23 4 2 5 4 6 5 8 6 9 7 10 8 11 11 12 12 13
REMARK SMILES IDX 10 14 13 15 9 16 14 17 15 18 20 19 16 20 19 21 17 22 18 23
REMARK SMILES IDX 1 24 24 27 25 28 26 29 27 30 28 31 29 33 38 34 30 35 33 36
REMARK SMILES IDX 37 37 31 38 32 39 34 40 36 41 35 42
REMARK H PARENT 4 7 1 25 1 26 28 32
REMARK Flexibility Score: inf
ROOT
ATOM      1  C   UNL     1      -0.411  11.938   2.859  1.00  0.00     0.264 A 
ATOM      2  N   UNL     1      -0.986  11.138   3.723  1.00  0.00    -0.107 NA
ATOM      3  N   UNL     1      -1.240   9.918   3.082  1.00  0.00    -0.119 NA
ATOM      4  C   UNL     1      -0.813  10.014   1.846  1.00  0.00     0.211 A 
ATOM      5  N   UNL     1      -0.284  11.262   1.677  1.00  0.00    -0.202 N 
ENDROOT
BRANCH   1   6
ATOM      6  N   UNL     1       0.001  13.241   3.101  1.00  0.00    -0.244 N 
ATOM      7  H   UNL     1       0.445  13.789   2.351  1.00  0.00     0.193 HD
BRANCH   6   8
ATOM      8  N   UNL     1      -0.187  13.811   4.367  1.00  0.00    -0.181 NA
ATOM      9  C   UNL     1       0.193  15.013   4.591  1.00  0.00     0.047 C 
BRANCH   9  10
ATOM     10  C   UNL     1       0.843  15.815   3.493  1.00  0.00     0.089 C 
BRANCH  10  11
ATOM     11  C   UNL     1      -0.216  16.561   2.722  1.00  0.00    -0.042 A 
ATOM     12  C   UNL     1      -2.158  17.930   1.308  1.00  0.00     0.000 A 
ATOM     13  C   UNL     1      -1.784  16.658   0.916  1.00  0.00     0.000 A 
ATOM     14  C   UNL     1      -1.560  18.517   2.407  1.00  0.00     0.000 A 
ATOM     15  C   UNL     1      -0.810  15.975   1.620  1.00  0.00     0.004 A 
ATOM     16  C   UNL     1      -0.589  17.833   3.114  1.00  0.00     0.004 A 
ENDBRANCH  10  11
ENDBRANCH   9  10
BRANCH   9  17
ATOM     17  C   UNL     1      -0.009  15.626   5.953  1.00  0.00     0.089 C 
BRANCH  17  18
ATOM     18  C   UNL     1       1.332  15.906   6.582  1.00  0.00    -0.042 A 
ATOM     19  C   UNL     1       1.949  17.127   6.379  1.00  0.00     0.004 A 
ATOM     20  C   UNL     1       1.942  14.945   7.366  1.00  0.00     0.004 A 
ATOM     21  C   UNL     1       3.178  17.384   6.956  1.00  0.00     0.000 A 
ATOM     22  C   UNL     1       3.174  15.200   7.938  1.00  0.00     0.000 A 
ATOM     23  C   UNL     1       3.791  16.421   7.735  1.00  0.00     0.000 A 
ENDBRANCH  17  18
ENDBRANCH   9  17
ENDBRANCH   6   8
ENDBRANCH   1   6
BRANCH   5  24
ATOM     24  N   UNL     1       0.271  11.750   0.528  1.00  0.00    -0.334 N 
ATOM     25  H   UNL     1       0.620  12.718   0.577  1.00  0.00     0.178 HD
ATOM     26  H   UNL     1       0.343  11.199  -0.339  1.00  0.00     0.178 HD
ENDBRANCH   5  24
BRANCH   4  27
ATOM     27  S   UNL     1      -0.899   8.751   0.621  1.00  0.00    -0.074 SA
BRANCH  27  28
ATOM     28  C   UNL     1      -1.692   7.362   1.476  1.00  0.00     0.178 C 
BRANCH  28  29
ATOM     29  C   UNL     1      -1.828   6.199   0.527  1.00  0.00     0.230 C 
ATOM     30  O   UNL     1      -1.429   6.297  -0.614  1.00  0.00    -0.274 OA
ATOM     31  N   UNL     1      -2.393   5.050   0.947  1.00  0.00    -0.349 N 
ATOM     32  H   UNL     1      -2.732   4.966   1.916  1.00  0.00     0.164 HD
BRANCH  31  33
ATOM     33  C   UNL     1      -2.525   3.919   0.025  1.00  0.00     0.112 C 
ATOM     34  C   UNL     1      -1.245   3.125   0.026  1.00  0.00    -0.022 A 
ATOM     35  C   UNL     1      -3.702   3.046   0.444  1.00  0.00     0.030 C 
ATOM     36  C   UNL     1      -1.228   1.748   0.017  1.00  0.00    -0.043 A 
ATOM     37  C   UNL     1      -0.048   3.828   0.021  1.00  0.00     0.006 A 
ATOM     38  C   UNL     1      -3.687   1.763  -0.395  1.00  0.00     0.007 C 
ATOM     39  C   UNL     1      -2.487   0.921   0.032  1.00  0.00     0.036 C 
ATOM     40  C   UNL     1      -0.013   1.076   0.008  1.00  0.00     0.004 A 
ATOM     41  C   UNL     1       1.158   3.158   0.008  1.00  0.00     0.000 A 
ATOM     42  C   UNL     1       1.176   1.776   0.000  1.00  0.00     0.000 A 
ENDBRANCH  31  33
ENDBRANCH  28  29
ENDBRANCH  27  28
ENDBRANCH   4  27
TORSDOF 11
