REMARK SMILES COC(=O)c1c[nH]nc1NC(=O)CSc1nc2n[nH]cc2c(=O)n1-c1ccc(Cl)cc1Cl
REMARK SMILES IDX 10 1 11 2 12 3 9 5 5 6 6 7 8 8 7 9 3 11 4 12 2 13 1 14 13 15
REMARK SMILES IDX 14 16 15 17 24 18 16 19 22 20 17 21 21 22 23 23 18 24 20 25
REMARK SMILES IDX 19 26 25 28 31 29 26 30 30 31 32 32 27 33 28 34 29 35
REMARK H PARENT 10 4 7 10 19 27
REMARK Flexibility Score: inf
ROOT
ATOM      1  N   UNL     1       1.345  -3.393   6.336  1.00  0.00    -0.308 N 
ATOM      2  C   UNL     1       1.317  -2.578   5.263  1.00  0.00     0.236 C 
ATOM      3  O   UNL     1       1.301  -1.375   5.416  1.00  0.00    -0.274 OA
ATOM      4  H   UNL     1       1.359  -4.415   6.206  1.00  0.00     0.171 HD
ENDROOT
BRANCH   1   5
ATOM      5  C   UNL     1       1.354  -2.852   7.625  1.00  0.00     0.169 A 
ATOM      6  C   UNL     1       1.383  -3.586   8.838  1.00  0.00     0.122 A 
ATOM      7  C   UNL     1       1.384  -2.666   9.869  1.00  0.00     0.123 A 
ATOM      8  N   UNL     1       1.345  -1.579   7.926  1.00  0.00    -0.157 NA
ATOM      9  N   UNL     1       1.357  -1.443   9.319  1.00  0.00    -0.283 N 
ATOM     10  H   UNL     1       1.349  -0.552   9.836  1.00  0.00     0.189 HD
BRANCH   6  11
ATOM     11  C   UNL     1       1.406  -5.051   8.974  1.00  0.00     0.343 C 
ATOM     12  O   UNL     1       1.403  -5.753   7.982  1.00  0.00    -0.246 OA
BRANCH  11  13
ATOM     13  O   UNL     1       1.432  -5.614  10.198  1.00  0.00    -0.465 OA
ATOM     14  C   UNL     1       1.454  -7.064  10.257  1.00  0.00     0.282 C 
ENDBRANCH  11  13
ENDBRANCH   6  11
ENDBRANCH   1   5
BRANCH   2  15
ATOM     15  C   UNL     1       1.307  -3.161   3.874  1.00  0.00     0.178 C 
BRANCH  15  16
ATOM     16  S   UNL     1       1.269  -1.821   2.657  1.00  0.00    -0.077 SA
BRANCH  16  17
ATOM     17  C   UNL     1       1.263  -2.760   1.167  1.00  0.00     0.178 A 
ATOM     18  N   UNL     1       1.236  -2.083  -0.021  1.00  0.00    -0.253 N 
ATOM     19  N   UNL     1       1.278  -4.064   1.262  1.00  0.00    -0.202 NA
ATOM     20  C   UNL     1       1.235  -2.739  -1.204  1.00  0.00     0.269 A 
ATOM     21  C   UNL     1       1.280  -4.854   0.155  1.00  0.00     0.189 A 
ATOM     22  C   UNL     1       1.258  -4.205  -1.166  1.00  0.00     0.104 A 
ATOM     23  O   UNL     1       1.215  -2.136  -2.261  1.00  0.00    -0.268 OA
ATOM     24  N   UNL     1       1.298  -6.149  -0.062  1.00  0.00    -0.155 NA
ATOM     25  C   UNL     1       1.264  -5.212  -2.100  1.00  0.00     0.121 A 
ATOM     26  N   UNL     1       1.289  -6.381  -1.442  1.00  0.00    -0.283 N 
ATOM     27  H   UNL     1       1.299  -7.310  -1.887  1.00  0.00     0.189 HD
BRANCH  18  28
ATOM     28  C   UNL     1       1.214  -0.681  -0.013  1.00  0.00     0.070 A 
ATOM     29  C   UNL     1       2.406   0.033  -0.021  1.00  0.00     0.066 A 
ATOM     30  C   UNL     1       0.002  -0.004   0.002  1.00  0.00     0.030 A 
ATOM     31  C   UNL     1       2.381   1.415  -0.013  1.00  0.00     0.043 A 
ATOM     32  Cl  UNL     1       3.924  -0.809  -0.040  1.00  0.00    -0.082 Cl
ATOM     33  C   UNL     1      -0.017   1.377   0.010  1.00  0.00     0.023 A 
ATOM     34  C   UNL     1       1.171   2.087   0.002  1.00  0.00     0.042 A 
ATOM     35  Cl  UNL     1       1.144   3.822   0.012  1.00  0.00    -0.084 Cl
ENDBRANCH  18  28
ENDBRANCH  16  17
ENDBRANCH  15  16
ENDBRANCH   2  15
TORSDOF 7
