REMARK SMILES CC(C)CCC[C@@H](C)[C@H]1CC[C@@H]2[C@@H]3CC=C4C[C@@H]([C@@](O)(C[NH+](C)C)P(=O)([O-])[O-])CC[C@]4(C)[C@@H]3CC[C@@]21C
REMARK SMILES IDX 7 1 8 2 6 3 5 4 4 5 2 6 1 7 3 8 9 9 36 10 10 11 12 12 35 13
REMARK SMILES IDX 37 14 11 15 13 16 34 17 33 18 14 19 31 20 15 21 16 22 30 23
REMARK SMILES IDX 32 24 17 25 29 26 18 27 19 28 21 29 22 30 23 31 24 32 20 34
REMARK SMILES IDX 25 36 26 37 27 38 28 39
REMARK H PARENT 22 33 20 35
REMARK Flexibility Score: inf
ROOT
ATOM      1  C   UNL     1      -3.744   0.547  -0.313  1.00  0.00    -0.011 C 
ATOM      2  C   UNL     1      -4.876  -0.476  -0.419  1.00  0.00     0.008 C 
ENDROOT
BRANCH   1   3
ATOM      3  C   UNL     1      -2.854   0.454  -1.554  1.00  0.00     0.003 C 
BRANCH   3   4
ATOM      4  C   UNL     1      -3.658   0.866  -2.789  1.00  0.00     0.001 C 
BRANCH   4   5
ATOM      5  C   UNL     1      -2.768   0.772  -4.031  1.00  0.00     0.003 C 
BRANCH   5   6
ATOM      6  C   UNL     1      -3.572   1.184  -5.266  1.00  0.00    -0.017 C 
ATOM      7  C   UNL     1      -2.651   1.211  -6.488  1.00  0.00     0.007 C 
ATOM      8  C   UNL     1      -4.700   0.177  -5.500  1.00  0.00     0.007 C 
ENDBRANCH   5   6
ENDBRANCH   4   5
ENDBRANCH   3   4
ENDBRANCH   1   3
BRANCH   1   9
ATOM      9  C   UNL     1      -2.906   0.255   0.940  1.00  0.00    -0.002 C 
ATOM     10  C   UNL     1      -3.735   0.518   2.207  1.00  0.00    -0.026 C 
ATOM     11  C   UNL     1      -1.716   1.234   1.019  1.00  0.00     0.005 C 
ATOM     12  C   UNL     1      -2.751   1.054   3.252  1.00  0.00    -0.001 C 
ATOM     13  C   UNL     1      -4.516  -0.695   2.655  1.00  0.00     0.007 C 
ATOM     14  C   UNL     1      -4.751   1.631   1.886  1.00  0.00     0.012 C 
ATOM     15  C   UNL     1      -1.740   1.877   2.415  1.00  0.00     0.005 C 
ATOM     16  C   UNL     1      -1.972  -0.045   3.970  1.00  0.00     0.000 C 
ATOM     17  C   UNL     1      -3.631  -1.763   3.295  1.00  0.00     0.005 C 
ATOM     18  C   UNL     1      -2.906  -1.134   4.486  1.00  0.00     0.003 C 
ATOM     19  C   UNL     1      -0.924  -0.662   3.047  1.00  0.00     0.031 C 
ATOM     20  C   UNL     1      -2.148  -2.186   5.281  1.00  0.00    -0.009 C 
ATOM     21  C   UNL     1      -0.252  -1.815   3.736  1.00  0.00    -0.027 C 
ATOM     22  C   UNL     1      -0.793  -2.484   4.710  1.00  0.00    -0.068 C 
ATOM     23  C   UNL     1      -2.967  -3.474   5.371  1.00  0.00     0.012 C 
ATOM     24  C   UNL     1      -1.959  -1.637   6.701  1.00  0.00     0.016 C 
ATOM     25  C   UNL     1      -0.000  -3.638   5.301  1.00  0.00     0.038 C 
ATOM     26  C   UNL     1      -2.178  -4.570   6.088  1.00  0.00     0.008 C 
ATOM     27  C   UNL     1      -0.896  -4.880   5.314  1.00  0.00     0.036 C 
BRANCH  27  28
ATOM     28  C   UNL     1      -0.157  -6.036   5.990  1.00  0.00     0.142 C 
BRANCH  28  29
ATOM     29  C   UNL     1       0.105  -5.686   7.456  1.00  0.00     0.303 C 
BRANCH  29  30
ATOM     30  N   UNL     1       0.692  -6.847   8.139  1.00  0.00    -0.337 N 
ATOM     31  C   UNL     1       2.111  -7.000   7.791  1.00  0.00     0.332 C 
ATOM     32  C   UNL     1       0.515  -6.747   9.594  1.00  0.00     0.332 C 
ATOM     33  H   UNL     1       0.194  -7.689   7.817  1.00  0.00     0.347 HD
ENDBRANCH  29  30
ENDBRANCH  28  29
BRANCH  28  34
ATOM     34  O   UNL     1       1.087  -6.260   5.324  1.00  0.00    -0.378 OA
ATOM     35  H   UNL     1       1.642  -5.441   5.374  1.00  0.00     0.212 HD
ENDBRANCH  28  34
BRANCH  28  36
ATOM     36  P   UNL     1      -1.176  -7.545   5.897  1.00  0.00    -0.028 P 
ATOM     37  O   UNL     1      -0.341  -8.725   6.215  1.00  0.00    -0.353 OA
ATOM     38  O   UNL     1      -2.384  -7.442   6.957  1.00  0.00    -0.809 OA
ATOM     39  O   UNL     1      -1.776  -7.697   4.411  1.00  0.00    -0.809 OA
ENDBRANCH  28  36
ENDBRANCH  27  28
ENDBRANCH   1   9
TORSDOF 10
