REMARK SMILES Cc1sc2ncnc(Sc3ccccc3C(=O)NNC(=O)Cc3c[nH]c4ccccc34)c2c1C
REMARK SMILES IDX 16 1 17 2 18 3 15 5 10 6 11 7 14 8 12 9 13 10 9 11 8 12
REMARK SMILES IDX 34 13 33 14 32 15 2 16 4 17 3 18 1 19 5 20 7 21 6 22 19 23
REMARK SMILES IDX 20 24 21 26 22 27 23 28 31 29 24 30 26 31 30 32 25 33 27 34
REMARK SMILES IDX 29 35 28 37
REMARK H PARENT 18 4 19 25 25 36
REMARK Flexibility Score: inf
ROOT
ATOM      1  C   UNL     1      -0.300   7.148   0.223  1.00  0.00     0.270 C 
ATOM      2  O   UNL     1      -1.041   6.184   0.221  1.00  0.00    -0.267 OA
ATOM      3  N   UNL     1      -0.810   8.390   0.342  1.00  0.00    -0.263 N 
ATOM      4  H   UNL     1      -0.182   9.207   0.344  1.00  0.00     0.191 HD
ENDROOT
BRANCH   1   5
ATOM      5  C   UNL     1       1.157   6.959   0.095  1.00  0.00     0.055 A 
ATOM      6  C   UNL     1       1.693   5.667  -0.029  1.00  0.00     0.027 A 
ATOM      7  C   UNL     1       3.068   5.502  -0.143  1.00  0.00     0.016 A 
ATOM      8  C   UNL     1       2.012   8.064   0.097  1.00  0.00     0.015 A 
ATOM      9  C   UNL     1       3.899   6.604  -0.146  1.00  0.00     0.001 A 
ATOM     10  C   UNL     1       3.372   7.880  -0.024  1.00  0.00     0.001 A 
BRANCH   6  11
ATOM     11  S   UNL     1       0.629   4.263  -0.032  1.00  0.00    -0.069 SA
BRANCH  11  12
ATOM     12  C   UNL     1      -0.006   4.364  -1.673  1.00  0.00     0.113 A 
ATOM     13  C   UNL     1      -1.064   1.892  -0.070  1.00  0.00     0.046 C 
ATOM     14  C   UNL     1      -1.448   2.205  -1.493  1.00  0.00    -0.025 A 
ATOM     15  C   UNL     1      -0.909   3.378  -2.158  1.00  0.00     0.047 A 
ATOM     16  C   UNL     1      -2.296   1.407  -2.158  1.00  0.00     0.007 A 
ATOM     17  C   UNL     1      -1.351   3.563  -3.487  1.00  0.00     0.128 A 
ATOM     18  S   UNL     1      -2.436   2.186  -3.756  1.00  0.00    -0.120 S 
ATOM     19  C   UNL     1      -2.970   0.150  -1.671  1.00  0.00     0.057 C 
ATOM     20  N   UNL     1      -0.943   4.587  -4.210  1.00  0.00    -0.225 NA
ATOM     21  N   UNL     1       0.350   5.360  -2.469  1.00  0.00    -0.229 NA
ATOM     22  C   UNL     1      -0.104   5.470  -3.704  1.00  0.00     0.224 A 
ENDBRANCH  11  12
ENDBRANCH   6  11
ENDBRANCH   1   5
BRANCH   3  23
ATOM     23  N   UNL     1      -2.194   8.570   0.464  1.00  0.00    -0.267 N 
ATOM     24  C   UNL     1      -2.704   9.812   0.583  1.00  0.00     0.242 C 
ATOM     25  H   UNL     1      -2.822   7.753   0.462  1.00  0.00     0.191 HD
ATOM     26  O   UNL     1      -1.965  10.773   0.585  1.00  0.00    -0.273 OA
BRANCH  24  27
ATOM     27  C   UNL     1      -4.193  10.005   0.713  1.00  0.00     0.139 C 
BRANCH  27  28
ATOM     28  C   UNL     1      -4.500  11.476   0.831  1.00  0.00    -0.013 A 
ATOM     29  C   UNL     1      -4.670  12.421  -0.275  1.00  0.00     0.003 A 
ATOM     30  C   UNL     1      -4.675  12.167   1.968  1.00  0.00     0.087 A 
ATOM     31  C   UNL     1      -4.943  13.668   0.318  1.00  0.00     0.046 A 
ATOM     32  C   UNL     1      -4.614  12.309  -1.665  1.00  0.00     0.010 A 
ATOM     33  N   UNL     1      -4.935  13.479   1.681  1.00  0.00    -0.361 N 
ATOM     34  C   UNL     1      -5.153  14.777  -0.495  1.00  0.00     0.026 A 
ATOM     35  C   UNL     1      -4.824  13.412  -2.445  1.00  0.00     0.001 A 
ATOM     36  H   UNL     1      -5.101  14.216   2.382  1.00  0.00     0.166 HD
ATOM     37  C   UNL     1      -5.093  14.643  -1.865  1.00  0.00     0.002 A 
ENDBRANCH  27  28
ENDBRANCH  24  27
ENDBRANCH   3  23
TORSDOF 6
