REMARK SMILES CC(C)c1nnc(NC(=O)CSc2nc3c(c(=O)[nH]2)CCCC3)s1
REMARK SMILES IDX 8 1 9 2 10 3 7 5 4 6 24 7 5 8 6 9 2 10 1 11 3 12 11 13 12 14
REMARK SMILES IDX 13 15 14 16 19 17 15 18 17 19 16 21 23 22 18 23 20 24 22 25
REMARK SMILES IDX 21 26
REMARK H PARENT 8 4 19 20
REMARK Flexibility Score: inf
ROOT
ATOM      1  N   UNL     1      -3.405   1.996   7.396  1.00  0.00    -0.300 N 
ATOM      2  C   UNL     1      -4.242   1.673   6.390  1.00  0.00     0.236 C 
ATOM      3  O   UNL     1      -5.417   1.475   6.619  1.00  0.00    -0.274 OA
ATOM      4  H   UNL     1      -2.407   2.164   7.201  1.00  0.00     0.172 HD
ENDROOT
BRANCH   1   5
ATOM      5  C   UNL     1      -3.887   2.104   8.695  1.00  0.00     0.212 A 
ATOM      6  C   UNL     1      -4.458   2.390  11.249  1.00  0.00     0.121 A 
ATOM      7  S   UNL     1      -3.040   2.494  10.164  1.00  0.00    -0.079 S 
ATOM      8  N   UNL     1      -5.394   2.067  10.379  1.00  0.00    -0.141 NA
ATOM      9  N   UNL     1      -5.115   1.931   9.155  1.00  0.00    -0.120 NA
BRANCH   6  10
ATOM     10  C   UNL     1      -4.554   2.604  12.738  1.00  0.00     0.044 C 
ATOM     11  C   UNL     1      -5.534   3.744  13.027  1.00  0.00     0.015 C 
ATOM     12  C   UNL     1      -5.053   1.321  13.407  1.00  0.00     0.015 C 
ENDBRANCH   6  10
ENDBRANCH   1   5
BRANCH   2  13
ATOM     13  C   UNL     1      -3.719   1.556   4.982  1.00  0.00     0.178 C 
BRANCH  13  14
ATOM     14  S   UNL     1      -5.076   1.113   3.869  1.00  0.00    -0.078 SA
BRANCH  14  15
ATOM     15  C   UNL     1      -4.207   1.046   2.338  1.00  0.00     0.168 A 
ATOM     16  N   UNL     1      -2.915   1.299   2.314  1.00  0.00    -0.229 NA
ATOM     17  N   UNL     1      -4.881   0.733   1.196  1.00  0.00    -0.301 N 
ATOM     18  C   UNL     1      -2.208   1.262   1.178  1.00  0.00     0.052 A 
ATOM     19  C   UNL     1      -4.213   0.677   0.027  1.00  0.00     0.254 A 
ATOM     20  H   UNL     1      -5.892   0.542   1.227  1.00  0.00     0.172 HD
ATOM     21  C   UNL     1      -2.829   0.948   0.011  1.00  0.00     0.039 A 
ATOM     22  C   UNL     1      -0.738   1.584   1.257  1.00  0.00     0.057 C 
ATOM     23  O   UNL     1      -4.799   0.395  -1.006  1.00  0.00    -0.269 OA
ATOM     24  C   UNL     1      -2.107   0.873  -1.306  1.00  0.00     0.043 C 
ATOM     25  C   UNL     1      -0.013   1.086   0.008  1.00  0.00     0.007 C 
ATOM     26  C   UNL     1      -0.765   1.599  -1.226  1.00  0.00     0.005 C 
ENDBRANCH  14  15
ENDBRANCH  13  14
ENDBRANCH   2  13
TORSDOF 5
