REMARK SMILES CC1(C)Cc2c(sc3ncn4nc(CC[N@@H+]5CCCC[C@H]5c5cccnc5)nc4c23)C(C)(C)[NH2+]1
REMARK SMILES IDX 15 1 14 2 13 3 1 4 2 5 34 6 4 7 3 8 31 9 5 12 6 13 32 14
REMARK SMILES IDX 33 15 30 16 7 17 8 18 29 19 9 20 11 21 28 22 10 23 12 24
REMARK SMILES IDX 16 25 21 26 17 27 20 29 18 30 19 31 22 32 27 33 23 34 26 35
REMARK SMILES IDX 24 36 25 37
REMARK H PARENT 34 10 34 11 16 28
REMARK Flexibility Score: inf
ROOT
ATOM      1  C   UNL     1      -1.645  -1.182  -1.430  1.00  0.00     0.271 C 
ENDROOT
BRANCH   1   2
ATOM      2  C   UNL     1      -1.217  -0.890   0.010  1.00  0.00     0.140 C 
BRANCH   2   3
ATOM      3  C   UNL     1       0.002  -0.004   0.002  1.00  0.00     0.157 A 
ATOM      4  C   UNL     1      -0.479   5.776   2.184  1.00  0.00     0.079 C 
ATOM      5  C   UNL     1      -0.739   5.911   0.681  1.00  0.00     0.095 C 
ATOM      6  N   UNL     1      -0.013   7.037   0.117  1.00  0.00    -0.333 N 
ATOM      7  C   UNL     1      -0.387   4.592  -0.013  1.00  0.00     0.105 C 
ATOM      8  C   UNL     1      -2.248   6.157   0.486  1.00  0.00     0.079 C 
ATOM      9  C   UNL     1       1.442   6.956   0.070  1.00  0.00     0.126 C 
ATOM     10  H   UNL     1      -0.270   7.883   0.646  1.00  0.00     0.347 HD
ATOM     11  H   UNL     1      -0.356   7.192  -0.842  1.00  0.00     0.347 HD
ATOM     12  C   UNL     1       1.129   4.429   0.015  1.00  0.00    -0.008 A 
ATOM     13  C   UNL     1       1.906   5.535   0.037  1.00  0.00     0.071 A 
ATOM     14  C   UNL     1       2.070   7.677   1.268  1.00  0.00     0.085 C 
ATOM     15  C   UNL     1       1.937   7.652  -1.214  1.00  0.00     0.085 C 
ATOM     16  C   UNL     1       1.803   3.138   0.004  1.00  0.00     0.060 A 
ATOM     17  S   UNL     1       3.568   4.920   0.019  1.00  0.00    -0.113 S 
ATOM     18  C   UNL     1       3.208   3.182  -0.003  1.00  0.00     0.129 A 
ATOM     19  C   UNL     1       1.221   1.782   0.000  1.00  0.00     0.167 A 
ATOM     20  N   UNL     1       3.946   2.078  -0.021  1.00  0.00    -0.225 NA
ATOM     21  N   UNL     1       2.066   0.710  -0.015  1.00  0.00    -0.202 N 
ATOM     22  N   UNL     1      -0.016   1.325   0.009  1.00  0.00    -0.211 NA
ATOM     23  C   UNL     1       3.414   0.888  -0.028  1.00  0.00     0.227 A 
ATOM     24  N   UNL     1       1.243  -0.427  -0.013  1.00  0.00    -0.150 NA
ENDBRANCH   2   3
ENDBRANCH   1   2
BRANCH   1  25
ATOM     25  N   UNL     1      -2.833  -2.045  -1.422  1.00  0.00    -0.328 N 
ATOM     26  C   UNL     1      -3.413  -2.155  -2.767  1.00  0.00     0.216 C 
ATOM     27  C   UNL     1      -2.518  -3.369  -0.870  1.00  0.00     0.262 C 
ATOM     28  H   UNL     1      -3.538  -1.610  -0.811  1.00  0.00     0.348 HD
ATOM     29  C   UNL     1      -4.725  -2.938  -2.696  1.00  0.00     0.070 C 
ATOM     30  C   UNL     1      -3.804  -4.189  -0.743  1.00  0.00     0.062 C 
ATOM     31  C   UNL     1      -4.452  -4.332  -2.123  1.00  0.00     0.012 C 
BRANCH  26  32
ATOM     32  C   UNL     1      -3.680  -0.776  -3.312  1.00  0.00     0.028 A 
ATOM     33  C   UNL     1      -4.188   0.214  -2.493  1.00  0.00     0.120 A 
ATOM     34  C   UNL     1      -3.426  -0.486  -4.644  1.00  0.00     0.013 A 
ATOM     35  N   UNL     1      -4.419   1.425  -2.961  1.00  0.00    -0.264 NA
ATOM     36  C   UNL     1      -3.687   0.797  -5.102  1.00  0.00     0.021 A 
ATOM     37  C   UNL     1      -4.189   1.737  -4.222  1.00  0.00     0.111 A 
ENDBRANCH  26  32
ENDBRANCH   1  25
TORSDOF 4
