REMARK SMILES C[C@H]([NH2+]Cc1ccccc1C[NH+]1CCN(c2ccccc2)CC1)C(=O)N1CCN(c2ccccc2)CC1
REMARK SMILES IDX 4 1 3 2 2 5 1 6 24 7 25 8 26 9 37 10 27 11 36 12 28 13 29 14
REMARK SMILES IDX 30 15 35 16 31 17 34 18 32 19 33 20 5 21 10 22 6 23 9 24
REMARK SMILES IDX 7 25 8 26 11 27 12 28 23 29 13 30 22 32 14 33 15 34 16 35
REMARK SMILES IDX 21 36 17 37 20 38 18 39 19 40
REMARK H PARENT 3 3 3 4 12 31
REMARK Flexibility Score: inf
ROOT
ATOM      1  C   UNL     1      -0.788   7.376  -4.277  1.00  0.00     0.298 C 
ENDROOT
BRANCH   1   2
ATOM      2  N   UNL     1       0.059   6.535  -3.421  1.00  0.00    -0.332 N 
ATOM      3  H   UNL     1       0.487   7.119  -2.689  1.00  0.00     0.347 HD
ATOM      4  H   UNL     1       0.807   6.116  -3.991  1.00  0.00     0.347 HD
BRANCH   2   5
ATOM      5  C   UNL     1      -0.727   5.467  -2.789  1.00  0.00     0.269 C 
ATOM      6  C   UNL     1      -0.830   4.276  -3.745  1.00  0.00     0.086 C 
BRANCH   5   7
ATOM      7  C   UNL     1      -0.051   5.031  -1.515  1.00  0.00     0.280 C 
ATOM      8  O   UNL     1       1.096   5.358  -1.295  1.00  0.00    -0.268 OA
ATOM      9  N   UNL     1      -0.720   4.278  -0.620  1.00  0.00    -0.334 N 
ATOM     10  C   UNL     1      -0.051   3.764   0.585  1.00  0.00     0.141 C 
ATOM     11  C   UNL     1      -2.138   3.946  -0.823  1.00  0.00     0.141 C 
ATOM     12  C   UNL     1      -0.903   4.126   1.806  1.00  0.00     0.138 C 
ATOM     13  C   UNL     1      -2.908   4.301   0.453  1.00  0.00     0.138 C 
ATOM     14  N   UNL     1      -2.275   3.641   1.603  1.00  0.00    -0.368 N 
BRANCH  14  15
ATOM     15  C   UNL     1      -3.040   3.806   2.759  1.00  0.00     0.037 A 
ATOM     16  C   UNL     1      -2.613   3.256   3.961  1.00  0.00     0.026 A 
ATOM     17  C   UNL     1      -4.227   4.526   2.712  1.00  0.00     0.026 A 
ATOM     18  C   UNL     1      -3.373   3.421   5.103  1.00  0.00     0.002 A 
ATOM     19  C   UNL     1      -4.984   4.683   3.856  1.00  0.00     0.002 A 
ATOM     20  C   UNL     1      -4.556   4.134   5.051  1.00  0.00     0.000 A 
ENDBRANCH  14  15
ENDBRANCH   5   7
ENDBRANCH   2   5
ENDBRANCH   1   2
BRANCH   1  21
ATOM     21  C   UNL     1       0.051   8.458  -4.906  1.00  0.00     0.015 A 
ATOM     22  C   UNL     1       0.817   8.178  -6.022  1.00  0.00     0.015 A 
ATOM     23  C   UNL     1       0.050   9.733  -4.371  1.00  0.00     0.010 A 
ATOM     24  C   UNL     1       1.587   9.171  -6.599  1.00  0.00     0.010 A 
ATOM     25  C   UNL     1       0.824  10.724  -4.945  1.00  0.00     0.001 A 
ATOM     26  C   UNL     1       1.590  10.444  -6.061  1.00  0.00     0.001 A 
BRANCH  22  27
ATOM     27  C   UNL     1       0.814   6.790  -6.609  1.00  0.00     0.299 C 
BRANCH  27  28
ATOM     28  N   UNL     1       1.639   5.904  -5.777  1.00  0.00    -0.328 N 
ATOM     29  C   UNL     1       1.492   4.503  -6.194  1.00  0.00     0.284 C 
ATOM     30  C   UNL     1       3.049   6.315  -5.809  1.00  0.00     0.284 C 
ATOM     31  H   UNL     1       1.307   5.983  -4.806  1.00  0.00     0.348 HD
ATOM     32  C   UNL     1       2.304   3.606  -5.256  1.00  0.00     0.178 C 
ATOM     33  C   UNL     1       3.861   5.419  -4.870  1.00  0.00     0.178 C 
ATOM     34  N   UNL     1       3.714   4.018  -5.287  1.00  0.00    -0.360 N 
BRANCH  34  35
ATOM     35  C   UNL     1       4.499   3.175  -4.497  1.00  0.00     0.037 A 
ATOM     36  C   UNL     1       5.867   3.394  -4.392  1.00  0.00     0.026 A 
ATOM     37  C   UNL     1       3.913   2.120  -3.809  1.00  0.00     0.026 A 
ATOM     38  C   UNL     1       6.640   2.559  -3.608  1.00  0.00     0.002 A 
ATOM     39  C   UNL     1       4.692   1.286  -3.032  1.00  0.00     0.002 A 
ATOM     40  C   UNL     1       6.054   1.507  -2.929  1.00  0.00     0.000 A 
ENDBRANCH  34  35
ENDBRANCH  27  28
ENDBRANCH  22  27
ENDBRANCH   1  21
TORSDOF 8
