REMARK SMILES C/C=C(\C)C(=O)O[C@@H]1C=C(C)C[C@@H](OC(=O)c2ccc(O)cc2)[C@@H]2[C@@]1(C)CC[C@@]2(O)C(C)C
REMARK SMILES IDX 24 1 25 2 27 3 28 4 29 5 26 6 8 7 7 8 5 9 6 10 3 11 1 12
REMARK SMILES IDX 2 13 4 14 9 15 10 16 11 17 12 18 13 20 14 22 15 23 16 24
REMARK SMILES IDX 17 25 23 26 18 27 22 28 19 29 20 30 21 31 31 33 32 34 33 35
REMARK SMILES IDX 30 36
REMARK H PARENT 21 32 30 37
REMARK Flexibility Score: 90.00
ROOT
ATOM      1  C   UNL     1      -1.118   1.514  -0.538  1.00  0.00     0.072 C 
ATOM      2  C   UNL     1      -1.456   2.810   0.218  1.00  0.00     0.018 C 
ATOM      3  C   UNL     1      -1.211   2.461   1.702  1.00  0.00     0.014 C 
ATOM      4  C   UNL     1      -0.079   1.418   1.699  1.00  0.00     0.037 C 
ATOM      5  C   UNL     1      -0.014   0.829   0.281  1.00  0.00     0.074 C 
ATOM      6  C   UNL     1      -2.893   3.268  -0.043  1.00  0.00     0.016 C 
ENDROOT
BRANCH   2   7
ATOM      7  C   UNL     1      -0.410   3.867  -0.240  1.00  0.00     0.206 C 
BRANCH   7   8
ATOM      8  O   UNL     1      -0.105   4.744   0.877  1.00  0.00    -0.454 OA
BRANCH   8   9
ATOM      9  C   UNL     1       1.056   5.426   0.821  1.00  0.00     0.333 C 
ATOM     10  O   UNL     1       1.736   5.386  -0.186  1.00  0.00    -0.247 OA
BRANCH   9  11
ATOM     11  C   UNL     1       1.499   6.219   1.976  1.00  0.00     0.030 C 
ATOM     12  C   UNL     1       3.100   7.706   3.105  1.00  0.00     0.036 C 
ATOM     13  C   UNL     1       2.645   6.893   1.920  1.00  0.00    -0.020 C 
ATOM     14  C   UNL     1       0.656   6.268   3.224  1.00  0.00     0.052 C 
ENDBRANCH   9  11
ENDBRANCH   8   9
ENDBRANCH   7   8
BRANCH   7  15
ATOM     15  C   UNL     1      -0.942   4.684  -1.377  1.00  0.00     0.017 C 
ATOM     16  C   UNL     1      -1.453   4.151  -2.444  1.00  0.00    -0.070 C 
ATOM     17  C   UNL     1      -1.878   5.084  -3.549  1.00  0.00     0.039 C 
BRANCH  16  18
ATOM     18  C   UNL     1      -1.653   2.682  -2.668  1.00  0.00     0.076 CG0
ATOM     19  G   UNL     1      -0.589   1.860  -1.936  1.00  0.00     0.000 G0
ENDBRANCH  16  18
ENDBRANCH   7  15
ENDBRANCH   2   7
BRANCH   1  20
ATOM     20  C   UNL     1      -0.589   1.860  -1.936  1.00  0.00     0.187 CG0
ATOM     21  G   UNL     1      -1.653   2.682  -2.668  1.00  0.00     0.000 G0
BRANCH  20  22
ATOM     22  O   UNL     1       0.631   2.638  -1.817  1.00  0.00    -0.458 OA
BRANCH  22  23
ATOM     23  C   UNL     1       1.516   2.546  -2.829  1.00  0.00     0.338 C 
ATOM     24  O   UNL     1       1.235   1.912  -3.826  1.00  0.00    -0.246 OA
BRANCH  23  25
ATOM     25  C   UNL     1       2.826   3.215  -2.726  1.00  0.00     0.060 A 
ATOM     26  C   UNL     1       3.607   3.407  -3.869  1.00  0.00     0.019 A 
ATOM     27  C   UNL     1       3.288   3.664  -1.485  1.00  0.00     0.019 A 
ATOM     28  C   UNL     1       4.830   4.032  -3.769  1.00  0.00     0.047 A 
ATOM     29  C   UNL     1       4.515   4.283  -1.392  1.00  0.00     0.047 A 
ATOM     30  C   UNL     1       5.288   4.472  -2.532  1.00  0.00     0.115 A 
BRANCH  30  31
ATOM     31  O   UNL     1       6.494   5.088  -2.437  1.00  0.00    -0.508 OA
ATOM     32  H   UNL     1       7.002   4.554  -1.776  1.00  0.00     0.293 HD
ENDBRANCH  30  31
ENDBRANCH  23  25
ENDBRANCH  22  23
ENDBRANCH  20  22
ENDBRANCH   1  20
BRANCH   5  33
ATOM     33  C   UNL     1      -0.259  -0.680   0.330  1.00  0.00     0.015 C 
ATOM     34  C   UNL     1      -0.204  -1.253  -1.088  1.00  0.00     0.010 C 
ATOM     35  C   UNL     1       0.818  -1.344   1.190  1.00  0.00     0.010 C 
ENDBRANCH   5  33
BRANCH   5  36
ATOM     36  O   UNL     1       1.263   1.097  -0.302  1.00  0.00    -0.389 OA
ATOM     37  H   UNL     1       1.419   2.075  -0.313  1.00  0.00     0.211 HD
ENDBRANCH   5  36
TORSDOF 9
