REMARK SMILES Cc1ccccc1-n1c(SCC(=O)NC(=O)NCc2ccccc2)nnc1-c1ccc(Cl)cc1
REMARK SMILES IDX 11 1 10 2 9 3 8 4 27 5 25 6 26 7 7 8 1 9 2 10 3 11 6 12 4 13
REMARK SMILES IDX 5 14 28 15 34 16 29 17 33 18 30 19 31 20 32 21 12 22 13 23
REMARK SMILES IDX 14 24 15 25 16 27 17 28 18 30 19 31 24 32 20 33 23 34 21 35
REMARK SMILES IDX 22 36
REMARK H PARENT 14 26 17 29
REMARK Flexibility Score: inf
ROOT
ATOM      1  C   UNL     1      -2.948   3.061  -3.552  1.00  0.00     0.178 C 
ENDROOT
BRANCH   1   2
ATOM      2  S   UNL     1      -1.533   2.260  -2.759  1.00  0.00    -0.076 SA
BRANCH   2   3
ATOM      3  C   UNL     1      -1.963   2.486  -1.065  1.00  0.00     0.196 A 
ATOM      4  N   UNL     1      -1.239   2.070   0.019  1.00  0.00    -0.270 N 
ATOM      5  C   UNL     1      -1.961   2.472   1.122  1.00  0.00     0.169 A 
ATOM      6  N   UNL     1      -3.041   3.082  -0.607  1.00  0.00    -0.122 NA
ATOM      7  N   UNL     1      -3.038   3.077   0.678  1.00  0.00    -0.129 NA
BRANCH   4   8
ATOM      8  C   UNL     1      -0.017   1.384   0.010  1.00  0.00     0.053 A 
ATOM      9  C   UNL     1       1.161   3.599   0.010  1.00  0.00     0.046 C 
ATOM     10  C   UNL     1       1.177   2.092   0.002  1.00  0.00    -0.027 A 
ATOM     11  C   UNL     1       2.381   1.413  -0.013  1.00  0.00     0.005 A 
ATOM     12  C   UNL     1       0.002  -0.004   0.002  1.00  0.00     0.027 A 
ATOM     13  C   UNL     1       2.396   0.031  -0.021  1.00  0.00     0.000 A 
ATOM     14  C   UNL     1       1.208  -0.677  -0.013  1.00  0.00     0.002 A 
ENDBRANCH   4   8
BRANCH   5  15
ATOM     15  C   UNL     1      -1.592   2.260   2.538  1.00  0.00     0.020 A 
ATOM     16  C   UNL     1      -2.239   2.979   3.545  1.00  0.00     0.013 A 
ATOM     17  C   UNL     1      -0.600   1.338   2.873  1.00  0.00     0.013 A 
ATOM     18  C   UNL     1      -1.891   2.777   4.864  1.00  0.00     0.021 A 
ATOM     19  C   UNL     1      -0.257   1.149   4.196  1.00  0.00     0.021 A 
ATOM     20  C   UNL     1      -0.902   1.864   5.191  1.00  0.00     0.041 A 
ATOM     21  Cl  UNL     1      -0.470   1.615   6.854  1.00  0.00    -0.084 Cl
ENDBRANCH   5  15
ENDBRANCH   2   3
ENDBRANCH   1   2
BRANCH   1  22
ATOM     22  C   UNL     1      -2.793   2.988  -5.049  1.00  0.00     0.238 C 
ATOM     23  O   UNL     1      -1.821   2.447  -5.532  1.00  0.00    -0.274 OA
ATOM     24  N   UNL     1      -3.734   3.523  -5.852  1.00  0.00    -0.277 N 
ATOM     25  C   UNL     1      -3.595   3.457  -7.191  1.00  0.00     0.321 C 
ATOM     26  H   UNL     1      -4.560   3.982  -5.442  1.00  0.00     0.174 HD
ATOM     27  O   UNL     1      -2.621   2.915  -7.675  1.00  0.00    -0.248 OA
ATOM     28  N   UNL     1      -4.537   3.993  -7.993  1.00  0.00    -0.334 N 
ATOM     29  H   UNL     1      -5.362   4.452  -7.583  1.00  0.00     0.165 HD
BRANCH  28  30
ATOM     30  C   UNL     1      -4.386   3.921  -9.448  1.00  0.00     0.153 C 
BRANCH  30  31
ATOM     31  C   UNL     1      -5.564   4.588 -10.109  1.00  0.00    -0.029 A 
ATOM     32  C   UNL     1      -5.519   5.938 -10.403  1.00  0.00     0.005 A 
ATOM     33  C   UNL     1      -6.688   3.849 -10.427  1.00  0.00     0.005 A 
ATOM     34  C   UNL     1      -6.600   6.550 -11.009  1.00  0.00     0.000 A 
ATOM     35  C   UNL     1      -7.771   4.462 -11.029  1.00  0.00     0.000 A 
ATOM     36  C   UNL     1      -7.727   5.812 -11.322  1.00  0.00     0.000 A 
ENDBRANCH  30  31
ENDBRANCH  28  30
ENDBRANCH   1  22
TORSDOF 7
