REMARK SMILES Cc1ccsc1C[NH+]1CCC(O)(c2ccc3oc(C(=O)NCCc4cccc(F)c4)cc3c2)CC1
REMARK SMILES IDX 13 1 14 2 15 3 16 4 32 5 33 6 31 7 18 8 17 9 11 10 8 11 9 12
REMARK SMILES IDX 35 13 10 15 34 16 7 17 6 18 1 19 2 20 3 21 5 22 4 23 12 24
REMARK SMILES IDX 19 26 20 27 21 28 22 30 23 31 24 32 30 33 25 34 28 35 26 36
REMARK SMILES IDX 27 37 29 38
REMARK H PARENT 8 14 12 25 21 29
REMARK Flexibility Score: inf
ROOT
ATOM      1  C   UNL     1       0.061   1.535   0.027  1.00  0.00    -0.015 A 
ATOM      2  C   UNL     1       1.265   2.225   0.038  1.00  0.00     0.010 A 
ATOM      3  C   UNL     1       1.288   3.602   0.055  1.00  0.00     0.048 A 
ATOM      4  C   UNL     1       0.093   4.314   0.059  1.00  0.00     0.135 A 
ATOM      5  C   UNL     1      -1.125   3.609   0.047  1.00  0.00     0.021 A 
ATOM      6  C   UNL     1      -1.126   2.212   0.025  1.00  0.00     0.018 A 
ATOM      7  C   UNL     1      -2.173   4.629   0.055  1.00  0.00     0.065 A 
ATOM      8  C   UNL     1      -1.532   5.827   0.071  1.00  0.00     0.192 A 
ATOM      9  O   UNL     1      -0.197   5.629   0.074  1.00  0.00    -0.451 OA
ENDROOT
BRANCH   1  10
ATOM     10  C   UNL     1       0.061   0.028   0.009  1.00  0.00     0.100 C 
ATOM     11  N   UNL     1       1.366  -2.448   0.738  1.00  0.00    -0.330 N 
ATOM     12  C   UNL     1       1.342  -2.005  -0.672  1.00  0.00     0.265 C 
ATOM     13  C   UNL     1       0.124  -2.029   1.423  1.00  0.00     0.265 C 
ATOM     14  H   UNL     1       2.171  -2.014   1.210  1.00  0.00     0.348 HD
ATOM     15  C   UNL     1       1.315  -0.475  -0.711  1.00  0.00     0.102 C 
ATOM     16  C   UNL     1       0.060  -0.500   1.447  1.00  0.00     0.102 C 
BRANCH  11  17
ATOM     17  C   UNL     1       1.506  -3.918   0.802  1.00  0.00     0.310 C 
BRANCH  17  18
ATOM     18  C   UNL     1       1.404  -4.359   2.239  1.00  0.00     0.062 A 
ATOM     19  C   UNL     1       3.767  -3.931   2.881  1.00  0.00     0.046 C 
ATOM     20  C   UNL     1       2.365  -4.385   3.195  1.00  0.00    -0.031 A 
ATOM     21  C   UNL     1       2.039  -4.830   4.462  1.00  0.00     0.015 A 
ATOM     22  S   UNL     1      -0.013  -4.989   3.124  1.00  0.00    -0.143 S 
ATOM     23  C   UNL     1       0.770  -5.238   4.709  1.00  0.00     0.065 A 
ENDBRANCH  17  18
ENDBRANCH  11  17
BRANCH  10  24
ATOM     24  O   UNL     1      -1.103  -0.443  -0.673  1.00  0.00    -0.385 OA
ATOM     25  H   UNL     1      -1.103  -1.433  -0.683  1.00  0.00     0.211 HD
ENDBRANCH  10  24
ENDBRANCH   1  10
BRANCH   8  26
ATOM     26  C   UNL     1      -2.193   7.139   0.085  1.00  0.00     0.287 C 
ATOM     27  O   UNL     1      -3.408   7.209   0.083  1.00  0.00    -0.266 OA
ATOM     28  N   UNL     1      -1.454   8.266   0.101  1.00  0.00    -0.349 N 
ATOM     29  H   UNL     1      -0.426   8.207   0.104  1.00  0.00     0.163 HD
BRANCH  28  30
ATOM     30  C   UNL     1      -2.113   9.575   0.115  1.00  0.00     0.121 C 
BRANCH  30  31
ATOM     31  C   UNL     1      -1.054  10.679   0.132  1.00  0.00     0.057 C 
BRANCH  31  32
ATOM     32  C   UNL     1      -1.731  12.025   0.146  1.00  0.00    -0.043 A 
ATOM     33  C   UNL     1      -2.046  12.627   1.350  1.00  0.00     0.043 A 
ATOM     34  C   UNL     1      -2.033  12.659  -1.044  1.00  0.00     0.004 A 
ATOM     35  C   UNL     1      -2.668  13.864   1.363  1.00  0.00     0.123 A 
ATOM     36  C   UNL     1      -2.659  13.891  -1.033  1.00  0.00     0.003 A 
ATOM     37  C   UNL     1      -2.975  14.496   0.170  1.00  0.00     0.039 A 
ATOM     38  F   UNL     1      -2.975  14.454   2.538  1.00  0.00    -0.207 F 
ENDBRANCH  31  32
ENDBRANCH  30  31
ENDBRANCH  28  30
ENDBRANCH   8  26
TORSDOF 8
