REMARK SMILES CC(=O)c1c(C)[nH]c(C(=O)CSC2=C(C#N)C3(CCCCC3)C(c3nc(C)cs3)=C(N)N2)c1C
REMARK SMILES IDX 11 1 12 2 13 3 23 4 17 5 30 6 14 7 22 8 18 9 32 10 21 11
REMARK SMILES IDX 19 12 20 14 24 15 27 16 26 17 25 18 28 19 29 20 31 21 15 24
REMARK SMILES IDX 16 25 9 26 10 27 8 28 7 29 33 30 5 31 4 33 34 34 6 35 2 36
REMARK SMILES IDX 3 37 1 38
REMARK H PARENT 32 13 31 22 31 23 7 32
REMARK Flexibility Score: inf
ROOT
ATOM      1  C   UNL     1      -6.925   2.441   1.804  1.00  0.00     0.159 C 
ENDROOT
BRANCH   1   2
ATOM      2  S   UNL     1      -8.227   3.330   2.693  1.00  0.00    -0.099 SA
BRANCH   2   3
ATOM      3  C   UNL     1      -9.537   3.204   1.522  1.00  0.00     0.089 C 
ATOM      4  C   UNL     1     -11.636   2.634  -0.213  1.00  0.00     0.040 C 
ATOM      5  C   UNL     1     -11.891   3.687   0.829  1.00  0.00     0.039 C 
ATOM      6  C   UNL     1     -10.406   2.122  -0.420  1.00  0.00     0.108 C 
ATOM      7  C   UNL     1     -10.748   3.755   1.804  1.00  0.00     0.070 C 
ATOM      8  C   UNL     1     -12.060   5.046   0.143  1.00  0.00     0.018 C 
ATOM      9  C   UNL     1     -13.178   3.346   1.588  1.00  0.00     0.018 C 
ATOM     10  N   UNL     1      -9.328   2.545   0.333  1.00  0.00    -0.336 N 
ATOM     11  C   UNL     1     -13.225   4.975  -0.845  1.00  0.00     0.001 C 
ATOM     12  C   UNL     1     -14.345   3.273   0.601  1.00  0.00     0.001 C 
ATOM     13  H   UNL     1      -8.368   2.367   0.004  1.00  0.00     0.169 HD
ATOM     14  C   UNL     1     -14.511   4.626  -0.093  1.00  0.00     0.000 C 
BRANCH   4  15
ATOM     15  C   UNL     1     -12.753   2.151  -1.024  1.00  0.00     0.124 A 
ATOM     16  C   UNL     1     -14.855   2.681  -4.003  1.00  0.00     0.067 C 
ATOM     17  C   UNL     1     -14.288   2.084  -2.741  1.00  0.00     0.049 A 
ATOM     18  N   UNL     1     -13.270   2.661  -2.140  1.00  0.00    -0.242 NA
ATOM     19  C   UNL     1     -14.827   0.952  -2.225  1.00  0.00     0.090 A 
ATOM     20  S   UNL     1     -13.789   0.712  -0.789  1.00  0.00    -0.122 S 
ENDBRANCH   4  15
BRANCH   6  21
ATOM     21  N   UNL     1     -10.222   1.164  -1.398  1.00  0.00    -0.385 N 
ATOM     22  H   UNL     1     -11.018   0.841  -1.965  1.00  0.00     0.158 HD
ATOM     23  H   UNL     1      -9.283   0.771  -1.559  1.00  0.00     0.158 HD
ENDBRANCH   6  21
BRANCH   7  24
ATOM     24  C   UNL     1     -10.938   4.419   3.058  1.00  0.00     0.098 C 
ATOM     25  N   UNL     1     -11.088   4.947   4.053  1.00  0.00    -0.193 NA
ENDBRANCH   7  24
ENDBRANCH   2   3
ENDBRANCH   1   2
BRANCH   1  26
ATOM     26  C   UNL     1      -5.670   2.421   2.639  1.00  0.00     0.189 C 
ATOM     27  O   UNL     1      -5.658   2.954   3.729  1.00  0.00    -0.292 OA
BRANCH  26  28
ATOM     28  C   UNL     1      -4.506   1.779   2.152  1.00  0.00     0.087 A 
ATOM     29  N   UNL     1      -4.383   1.136   0.936  1.00  0.00    -0.355 N 
ATOM     30  C   UNL     1      -3.299   1.686   2.809  1.00  0.00    -0.011 A 
ATOM     31  C   UNL     1      -3.140   0.652   0.814  1.00  0.00     0.023 A 
ATOM     32  H   UNL     1      -5.131   1.043   0.234  1.00  0.00     0.166 HD
ATOM     33  C   UNL     1      -2.427   0.966   1.961  1.00  0.00     0.041 A 
ATOM     34  C   UNL     1      -2.972   2.245   4.170  1.00  0.00     0.047 C 
ATOM     35  C   UNL     1      -2.606  -0.109  -0.372  1.00  0.00     0.065 C 
BRANCH  33  36
ATOM     36  C   UNL     1      -1.029   0.622   2.240  1.00  0.00     0.161 C 
ATOM     37  O   UNL     1      -0.145   1.411   1.976  1.00  0.00    -0.294 OA
ATOM     38  C   UNL     1      -0.689  -0.712   2.854  1.00  0.00     0.093 C 
ENDBRANCH  33  36
ENDBRANCH  26  28
ENDBRANCH   1  26
TORSDOF 8
