REMARK SMILES O=C1N[C@H](Cc2c[nH]c3ccccc23)C(=O)N2[C@H](c3ccccc3)c3[nH]c4ccccc4c3C[C@@H]12
REMARK SMILES IDX 18 1 25 2 33 3 32 4 31 5 30 6 29 7 28 8 27 9 26 10 34 11
REMARK SMILES IDX 35 12 17 13 15 14 16 15 4 16 3 17 2 18 1 19 19 22 22 23
REMARK SMILES IDX 23 24 21 25 24 26 20 27 5 28 6 29 14 30 7 31 9 32 13 33 8 34
REMARK SMILES IDX 10 35 12 36 11 38
REMARK H PARENT 26 20 3 21 8 37
REMARK Flexibility Score: inf
ROOT
ATOM      1  C   UNL     1      -0.070   5.347   0.032  1.00  0.00     0.163 C 
ATOM      2  C   UNL     1      -0.483   5.847   1.398  1.00  0.00     0.047 A 
ATOM      3  C   UNL     1      -1.686   6.403   1.656  1.00  0.00    -0.014 A 
ATOM      4  C   UNL     1      -1.701   6.746   3.064  1.00  0.00     0.003 A 
ATOM      5  C   UNL     1      -2.667   7.335   3.885  1.00  0.00     0.010 A 
ATOM      6  C   UNL     1      -2.332   7.518   5.204  1.00  0.00     0.001 A 
ATOM      7  C   UNL     1      -1.099   7.139   5.709  1.00  0.00     0.002 A 
ATOM      8  C   UNL     1      -0.126   6.552   4.920  1.00  0.00     0.026 A 
ATOM      9  C   UNL     1      -0.438   6.354   3.576  1.00  0.00     0.046 A 
ATOM     10  N   UNL     1       0.271   5.815   2.541  1.00  0.00    -0.356 N 
ATOM     11  C   UNL     1      -2.775   6.607   0.634  1.00  0.00     0.073 C 
ATOM     12  C   UNL     1      -2.483   5.722  -0.586  1.00  0.00     0.180 C 
ATOM     13  N   UNL     1      -1.069   5.842  -0.939  1.00  0.00    -0.316 N 
ATOM     14  C   UNL     1      -0.646   6.377  -2.087  1.00  0.00     0.247 C 
ATOM     15  O   UNL     1       0.550   6.489  -2.252  1.00  0.00    -0.272 OA
ATOM     16  C   UNL     1      -1.548   6.845  -3.183  1.00  0.00     0.176 C 
ATOM     17  N   UNL     1      -2.949   6.619  -2.871  1.00  0.00    -0.342 N 
ATOM     18  C   UNL     1      -3.379   6.115  -1.716  1.00  0.00     0.243 C 
ATOM     19  O   UNL     1      -4.574   5.965  -1.572  1.00  0.00    -0.273 OA
ATOM     20  H   UNL     1       1.228   5.440   2.610  1.00  0.00     0.166 HD
ATOM     21  H   UNL     1      -3.650   6.864  -3.585  1.00  0.00     0.164 HD
ENDROOT
BRANCH   1  22
ATOM     22  C   UNL     1      -0.050   3.840   0.023  1.00  0.00    -0.019 A 
ATOM     23  C   UNL     1      -0.012   1.076   0.008  1.00  0.00     0.000 A 
ATOM     24  C   UNL     1       1.098   1.785  -0.413  1.00  0.00     0.000 A 
ATOM     25  C   UNL     1      -1.143   1.749   0.430  1.00  0.00     0.000 A 
ATOM     26  C   UNL     1       1.079   3.167  -0.405  1.00  0.00     0.006 A 
ATOM     27  C   UNL     1      -1.160   3.131   0.442  1.00  0.00     0.006 A 
ENDBRANCH   1  22
BRANCH  16  28
ATOM     28  C   UNL     1      -1.197   6.095  -4.469  1.00  0.00     0.072 C 
BRANCH  28  29
ATOM     29  C   UNL     1      -1.968   6.686  -5.621  1.00  0.00    -0.020 A 
ATOM     30  C   UNL     1      -1.581   7.849  -6.424  1.00  0.00     0.003 A 
ATOM     31  C   UNL     1      -3.137   6.244  -6.110  1.00  0.00     0.087 A 
ATOM     32  C   UNL     1      -2.603   8.023  -7.375  1.00  0.00     0.046 A 
ATOM     33  C   UNL     1      -0.489   8.719  -6.408  1.00  0.00     0.010 A 
ATOM     34  N   UNL     1      -3.535   7.034  -7.154  1.00  0.00    -0.361 N 
ATOM     35  C   UNL     1      -2.512   9.066  -8.291  1.00  0.00     0.026 A 
ATOM     36  C   UNL     1      -0.419   9.736  -7.318  1.00  0.00     0.001 A 
ATOM     37  H   UNL     1      -4.403   6.907  -7.695  1.00  0.00     0.166 HD
ATOM     38  C   UNL     1      -1.425   9.912  -8.258  1.00  0.00     0.002 A 
ENDBRANCH  28  29
ENDBRANCH  16  28
TORSDOF 3
