REMARK SMILES O=C(NNC(=O)c1c2c(nc3ccccc13)/C(=C/c1ccco1)CCC2)c1n[nH]c2c1CCCC2
REMARK SMILES IDX 5 1 6 2 4 3 7 5 14 6 15 7 13 8 16 9 12 10 11 11 10 12 8 13
REMARK SMILES IDX 9 14 26 15 17 16 25 17 18 18 24 19 19 20 23 21 20 22 22 23
REMARK SMILES IDX 21 24 3 25 2 26 1 28 27 29 28 30 31 31 29 32 32 33 30 34
REMARK SMILES IDX 33 36 35 37 34 38
REMARK H PARENT 4 4 3 27 29 35
REMARK Flexibility Score: inf
ROOT
ATOM      1  C   UNL     1      -0.562   3.073  -3.730  1.00  0.00     0.270 C 
ATOM      2  O   UNL     1      -1.478   2.456  -4.237  1.00  0.00    -0.267 OA
ATOM      3  N   UNL     1       0.630   3.143  -4.354  1.00  0.00    -0.263 N 
ATOM      4  H   UNL     1       1.407   3.665  -3.924  1.00  0.00     0.191 HD
ENDROOT
BRANCH   1   5
ATOM      5  C   UNL     1      -0.755   3.747  -2.428  1.00  0.00     0.056 A 
ATOM      6  C   UNL     1      -1.948   7.156  -3.392  1.00  0.00     0.001 A 
ATOM      7  C   UNL     1      -1.511   5.869  -3.507  1.00  0.00     0.011 A 
ATOM      8  C   UNL     1      -2.115   7.744  -2.141  1.00  0.00     0.002 A 
ATOM      9  C   UNL     1      -1.226   5.131  -2.354  1.00  0.00     0.013 A 
ATOM     10  C   UNL     1      -1.847   7.054  -0.999  1.00  0.00     0.029 A 
ATOM     11  C   UNL     1      -1.393   5.724  -1.077  1.00  0.00     0.072 A 
ATOM     12  N   UNL     1      -1.120   5.024   0.023  1.00  0.00    -0.248 NA
ATOM     13  C   UNL     1      -0.498   3.090  -1.232  1.00  0.00    -0.008 A 
ATOM     14  C   UNL     1      -0.691   3.772  -0.017  1.00  0.00     0.071 A 
ATOM     15  C   UNL     1      -0.020   1.665  -1.278  1.00  0.00     0.039 C 
ATOM     16  C   UNL     1      -0.405   3.080   1.257  1.00  0.00    -0.018 C 
ATOM     17  C   UNL     1       0.719   1.288   0.004  1.00  0.00     0.010 C 
ATOM     18  C   UNL     1      -0.345   3.760   2.422  1.00  0.00     0.053 C 
ATOM     19  C   UNL     1      -0.179   1.584   1.212  1.00  0.00     0.038 C 
BRANCH  18  20
ATOM     20  C   UNL     1      -0.227   3.034   3.687  1.00  0.00     0.126 A 
ATOM     21  O   UNL     1      -0.283   1.696   3.841  1.00  0.00    -0.465 OA
ATOM     22  C   UNL     1      -0.034   3.594   4.919  1.00  0.00     0.050 A 
ATOM     23  C   UNL     1      -0.137   1.390   5.139  1.00  0.00     0.195 A 
ATOM     24  C   UNL     1       0.016   2.534   5.840  1.00  0.00     0.042 A 
ENDBRANCH  18  20
ENDBRANCH   1   5
BRANCH   3  25
ATOM     25  N   UNL     1       0.814   2.504  -5.587  1.00  0.00    -0.262 N 
ATOM     26  C   UNL     1       2.006   2.573  -6.211  1.00  0.00     0.290 C 
ATOM     27  H   UNL     1       0.037   1.981  -6.017  1.00  0.00     0.191 HD
ATOM     28  O   UNL     1       2.923   3.190  -5.704  1.00  0.00    -0.266 OA
BRANCH  26  29
ATOM     29  C   UNL     1       2.200   1.900  -7.512  1.00  0.00     0.155 A 
ATOM     30  N   UNL     1       1.300   1.198  -8.179  1.00  0.00    -0.170 NA
ATOM     31  C   UNL     1       3.374   1.885  -8.283  1.00  0.00     0.006 A 
ATOM     32  N   UNL     1       1.808   0.753  -9.277  1.00  0.00    -0.281 N 
ATOM     33  C   UNL     1       4.707   2.523  -8.005  1.00  0.00     0.040 C 
ATOM     34  C   UNL     1       3.086   1.150  -9.385  1.00  0.00     0.039 A 
ATOM     35  H   UNL     1       1.307   0.179  -9.969  1.00  0.00     0.190 HD
ATOM     36  C   UNL     1       5.750   1.881  -8.930  1.00  0.00     0.005 C 
ATOM     37  C   UNL     1       4.071   0.876 -10.493  1.00  0.00     0.056 C 
ATOM     38  C   UNL     1       5.227   1.881 -10.369  1.00  0.00     0.007 C 
ENDBRANCH  26  29
ENDBRANCH   3  25
TORSDOF 4
