REMARK SMILES Cc1ccc(S(=O)(=O)N(CCCc2c(NCCCc3ccccc3)nc(N)[nH+]c2C)c2ccccc2)cc1
REMARK SMILES IDX 13 1 29 2 28 3 26 4 25 5 14 6 30 7 12 9 11 10 10 11 9 12
REMARK SMILES IDX 6 13 7 14 8 15 5 16 1 17 2 18 38 19 3 20 37 21 4 22 31 23
REMARK SMILES IDX 36 24 32 25 35 26 33 27 34 28 15 29 16 31 17 32 18 33 19 34
REMARK SMILES IDX 24 35 20 36 23 37 21 38 22 39 27 40
REMARK H PARENT 28 8 15 30 27 41 27 42
REMARK Flexibility Score: inf
ROOT
ATOM      1  C   UNL     1      -0.896   0.962   6.415  1.00  0.00     0.046 A 
ATOM      2  C   UNL     1      -0.498   0.623   7.693  1.00  0.00     0.081 A 
ATOM      3  N   UNL     1       0.466  -0.272   7.856  1.00  0.00    -0.246 N 
ATOM      4  C   UNL     1       1.045  -0.846   6.812  1.00  0.00     0.389 A 
ATOM      5  N   UNL     1       0.688  -0.552   5.570  1.00  0.00    -0.054 NA
ATOM      6  C   UNL     1      -0.272   0.336   5.334  1.00  0.00     0.212 A 
ATOM      7  C   UNL     1      -1.148   1.268   8.890  1.00  0.00     0.083 C 
ATOM      8  H   UNL     1       0.769  -0.524   8.807  1.00  0.00     0.267 HD
ENDROOT
BRANCH   1   9
ATOM      9  C   UNL     1      -1.984   1.981   6.192  1.00  0.00     0.046 C 
BRANCH   9  10
ATOM     10  C   UNL     1      -3.342   1.276   6.152  1.00  0.00     0.028 C 
BRANCH  10  11
ATOM     11  C   UNL     1      -4.447   2.310   5.926  1.00  0.00     0.136 C 
BRANCH  11  12
ATOM     12  N   UNL     1      -5.747   1.635   5.888  1.00  0.00    -0.266 N 
BRANCH  12  13
ATOM     13  S   UNL     1      -6.668   1.534   7.260  1.00  0.00     0.264 S 
ATOM     14  O   UNL     1      -7.614   0.497   7.039  1.00  0.00    -0.201 OA
ATOM     15  O   UNL     1      -5.763   1.520   8.356  1.00  0.00    -0.201 OA
BRANCH  13  16
ATOM     16  C   UNL     1      -7.585   3.034   7.384  1.00  0.00     0.088 A 
ATOM     17  C   UNL     1      -9.807   6.670   7.684  1.00  0.00     0.044 C 
ATOM     18  C   UNL     1      -9.023   5.387   7.578  1.00  0.00    -0.051 A 
ATOM     19  C   UNL     1      -7.774   5.290   8.163  1.00  0.00     0.005 A 
ATOM     20  C   UNL     1      -9.553   4.308   6.896  1.00  0.00     0.005 A 
ATOM     21  C   UNL     1      -7.057   4.112   8.070  1.00  0.00     0.022 A 
ATOM     22  C   UNL     1      -8.833   3.131   6.799  1.00  0.00     0.022 A 
ENDBRANCH  13  16
ENDBRANCH  12  13
BRANCH  12  23
ATOM     23  C   UNL     1      -6.209   1.077   4.694  1.00  0.00     0.052 A 
ATOM     24  C   UNL     1      -6.479  -0.284   4.620  1.00  0.00     0.027 A 
ATOM     25  C   UNL     1      -6.406   1.882   3.579  1.00  0.00     0.027 A 
ATOM     26  C   UNL     1      -6.936  -0.832   3.438  1.00  0.00     0.002 A 
ATOM     27  C   UNL     1      -6.859   1.326   2.399  1.00  0.00     0.002 A 
ATOM     28  C   UNL     1      -7.126  -0.029   2.329  1.00  0.00     0.000 A 
ENDBRANCH  12  23
ENDBRANCH  11  12
ENDBRANCH  10  11
ENDBRANCH   9  10
ENDBRANCH   1   9
BRANCH   6  29
ATOM     29  N   UNL     1      -0.643   0.641   4.035  1.00  0.00    -0.356 N 
ATOM     30  H   UNL     1      -1.387   1.331   3.861  1.00  0.00     0.163 HD
BRANCH  29  31
ATOM     31  C   UNL     1       0.024  -0.017   2.909  1.00  0.00     0.116 C 
BRANCH  31  32
ATOM     32  C   UNL     1      -0.569   0.495   1.595  1.00  0.00     0.026 C 
BRANCH  32  33
ATOM     33  C   UNL     1       0.127  -0.193   0.419  1.00  0.00     0.037 C 
BRANCH  33  34
ATOM     34  C   UNL     1      -0.457   0.311  -0.876  1.00  0.00    -0.048 A 
ATOM     35  C   UNL     1       0.091   1.417  -1.497  1.00  0.00     0.004 A 
ATOM     36  C   UNL     1      -1.539  -0.336  -1.444  1.00  0.00     0.004 A 
ATOM     37  C   UNL     1      -0.444   1.880  -2.685  1.00  0.00     0.000 A 
ATOM     38  C   UNL     1      -2.078   0.130  -2.629  1.00  0.00     0.000 A 
ATOM     39  C   UNL     1      -1.529   1.236  -3.250  1.00  0.00     0.000 A 
ENDBRANCH  33  34
ENDBRANCH  32  33
ENDBRANCH  31  32
ENDBRANCH  29  31
ENDBRANCH   6  29
BRANCH   4  40
ATOM     40  N   UNL     1       2.049  -1.776   7.023  1.00  0.00    -0.287 N 
ATOM     41  H   UNL     1       2.343  -2.020   7.979  1.00  0.00     0.256 HD
ATOM     42  H   UNL     1       2.503  -2.226   6.216  1.00  0.00     0.256 HD
ENDBRANCH   4  40
TORSDOF 13
