REMARK SMILES O=C(NNC(=O)c1nn(-c2ccc(F)cc2)c2c1CCCCC2)c1cnccn1
REMARK SMILES IDX 9 1 17 2 18 3 7 4 8 5 10 6 11 7 12 8 16 9 13 10 15 11 14 12
REMARK SMILES IDX 23 13 22 14 21 15 5 17 6 18 4 19 3 21 2 22 1 24 24 25 29 26
REMARK SMILES IDX 25 27 28 28 26 29 27 30 19 31 20 32
REMARK H PARENT 4 20 3 23
REMARK Flexibility Score: 90.00
ROOT
ATOM      1  N   UNL     1      -8.713  -0.769   0.044  1.00  0.00    -0.237 N 
ATOM      2  C   UNL     1      -9.474   0.352   0.061  1.00  0.00     0.048 A 
ATOM      3  C   UNL     1      -8.628   1.407   0.058  1.00  0.00     0.007 A 
ATOM      4  C   UNL     1      -7.329   0.860   0.043  1.00  0.00     0.155 A 
ATOM      5  N   UNL     1      -7.466  -0.454   0.037  1.00  0.00    -0.162 NA
ENDROOT
BRANCH   1   6
ATOM      6  C   UNL     1      -9.212  -2.079   0.035  1.00  0.00     0.065 A 
ATOM      7  C   UNL     1     -10.371  -2.387   0.735  1.00  0.00     0.031 A 
ATOM      8  C   UNL     1     -10.863  -3.677   0.720  1.00  0.00     0.041 A 
ATOM      9  C   UNL     1      -8.544  -3.072  -0.670  1.00  0.00     0.031 A 
ATOM     10  C   UNL     1     -10.196  -4.666   0.016  1.00  0.00     0.123 A 
ATOM     11  C   UNL     1      -9.037  -4.362  -0.678  1.00  0.00     0.041 A 
ATOM     12  F   UNL     1     -10.676  -5.929   0.007  1.00  0.00    -0.207 F 
ENDBRANCH   1   6
BRANCH   2  13
ATOM     13  C   UNL     1     -10.978   0.438   0.097  1.00  0.00     0.056 C 
BRANCH  13  14
ATOM     14  C   UNL     1     -11.448   1.458  -0.945  1.00  0.00     0.006 C 
BRANCH  14  15
ATOM     15  C   UNL     1     -11.493   2.850  -0.322  1.00  0.00     0.001 CG0
ATOM     16  G   UNL     1     -10.384   3.016   0.715  1.00  0.00     0.000 G0
ENDBRANCH  14  15
ENDBRANCH  13  14
ENDBRANCH   2  13
BRANCH   4  17
ATOM     17  C   UNL     1      -6.058   1.612   0.040  1.00  0.00     0.290 C 
ATOM     18  O   UNL     1      -6.071   2.828   0.047  1.00  0.00    -0.266 OA
ATOM     19  N   UNL     1      -4.884   0.951   0.031  1.00  0.00    -0.262 N 
ATOM     20  H   UNL     1      -4.873  -0.079   0.026  1.00  0.00     0.191 HD
BRANCH  19  21
ATOM     21  N   UNL     1      -3.678   1.665   0.029  1.00  0.00    -0.262 N 
ATOM     22  C   UNL     1      -2.504   1.003   0.020  1.00  0.00     0.289 C 
ATOM     23  H   UNL     1      -3.689   2.695   0.034  1.00  0.00     0.191 HD
ATOM     24  O   UNL     1      -2.491  -0.212   0.013  1.00  0.00    -0.266 OA
BRANCH  22  25
ATOM     25  C   UNL     1      -1.229   1.758   0.017  1.00  0.00     0.148 A 
ATOM     26  N   UNL     1      -1.241   3.088   0.029  1.00  0.00    -0.248 NA
ATOM     27  C   UNL     1      -0.013   1.076   0.008  1.00  0.00     0.145 A 
ATOM     28  C   UNL     1      -0.105   3.756   0.022  1.00  0.00     0.132 A 
ATOM     29  N   UNL     1       1.121   1.753   0.001  1.00  0.00    -0.261 NA
ATOM     30  C   UNL     1       1.104   3.074   0.008  1.00  0.00     0.131 A 
ENDBRANCH  22  25
ENDBRANCH  19  21
ENDBRANCH   4  17
BRANCH   3  31
ATOM     31  C   UNL     1      -9.019   2.859   0.038  1.00  0.00     0.040 C 
BRANCH  31  32
ATOM     32  C   UNL     1     -10.384   3.016   0.715  1.00  0.00     0.005 CG0
ATOM     33  G   UNL     1     -11.493   2.850  -0.322  1.00  0.00     0.000 G0
ENDBRANCH  31  32
ENDBRANCH   3  31
TORSDOF 4
