REMARK SMILES Cc1cccc2c(=O)c3c(O)cc(OC(=O)[C@@H](NC(=O)OCc4ccccc4)c4ccccc4)cc3oc12
REMARK SMILES IDX 17 1 15 2 16 3 14 4 13 5 1 6 2 7 38 8 3 9 6 10 37 11 4 12
REMARK SMILES IDX 5 13 7 14 36 15 9 16 8 17 35 18 10 19 12 20 11 21 29 23
REMARK SMILES IDX 34 24 30 25 33 26 31 27 32 28 18 29 19 30 20 32 21 33 22 34
REMARK SMILES IDX 23 35 28 36 24 37 27 38 25 39 26 40
REMARK H PARENT 11 22 18 31
REMARK Flexibility Score: inf
ROOT
ATOM      1  C   UNL     1       2.875  11.756   0.263  1.00  0.00     0.226 C 
ENDROOT
BRANCH   1   2
ATOM      2  C   UNL     1       2.960  10.257   0.134  1.00  0.00     0.338 C 
ATOM      3  O   UNL     1       4.038   9.712   0.118  1.00  0.00    -0.249 OA
BRANCH   2   4
ATOM      4  O   UNL     1       1.837   9.526   0.036  1.00  0.00    -0.424 OA
BRANCH   4   5
ATOM      5  C   UNL     1       1.977   8.176   0.044  1.00  0.00     0.138 A 
ATOM      6  C   UNL     1       0.996   4.195  -4.729  1.00  0.00     0.048 C 
ATOM      7  C   UNL     1       1.427   3.392  -3.530  1.00  0.00    -0.008 A 
ATOM      8  C   UNL     1       1.711   4.034  -2.329  1.00  0.00     0.141 A 
ATOM      9  C   UNL     1       1.545   2.021  -3.626  1.00  0.00     0.007 A 
ATOM     10  C   UNL     1       2.111   3.268  -1.224  1.00  0.00     0.066 A 
ATOM     11  O   UNL     1       1.598   5.375  -2.240  1.00  0.00    -0.455 OA
ATOM     12  C   UNL     1       1.935   1.266  -2.530  1.00  0.00     0.001 A 
ATOM     13  C   UNL     1       2.221   1.882  -1.331  1.00  0.00     0.016 A 
ATOM     14  C   UNL     1       2.411   3.955   0.050  1.00  0.00     0.204 A 
ATOM     15  C   UNL     1       1.855   6.071  -1.114  1.00  0.00     0.146 A 
ATOM     16  C   UNL     1       2.264   5.420   0.062  1.00  0.00     0.107 A 
ATOM     17  O   UNL     1       2.762   3.340   1.040  1.00  0.00    -0.288 OA
ATOM     18  C   UNL     1       1.715   7.452  -1.108  1.00  0.00     0.095 A 
ATOM     19  C   UNL     1       2.528   6.158   1.225  1.00  0.00     0.134 A 
ATOM     20  C   UNL     1       2.382   7.533   1.209  1.00  0.00     0.094 A 
BRANCH  19  21
ATOM     21  O   UNL     1       2.923   5.527   2.359  1.00  0.00    -0.507 OA
ATOM     22  H   UNL     1       2.262   5.799   3.044  1.00  0.00     0.293 HD
ENDBRANCH  19  21
ENDBRANCH   4   5
ENDBRANCH   2   4
ENDBRANCH   1   2
BRANCH   1  23
ATOM     23  C   UNL     1       2.174  12.325  -0.943  1.00  0.00    -0.014 A 
ATOM     24  C   UNL     1       0.838  12.671  -0.867  1.00  0.00     0.006 A 
ATOM     25  C   UNL     1       2.869  12.506  -2.125  1.00  0.00     0.006 A 
ATOM     26  C   UNL     1       0.195  13.193  -1.974  1.00  0.00     0.000 A 
ATOM     27  C   UNL     1       2.224  13.024  -3.233  1.00  0.00     0.000 A 
ATOM     28  C   UNL     1       0.888  13.370  -3.156  1.00  0.00     0.000 A 
ENDBRANCH   1  23
BRANCH   1  29
ATOM     29  N   UNL     1       4.226  12.315   0.353  1.00  0.00    -0.304 N 
ATOM     30  C   UNL     1       4.424  13.503   0.958  1.00  0.00     0.408 C 
ATOM     31  H   UNL     1       5.024  11.801  -0.048  1.00  0.00     0.168 HD
ATOM     32  O   UNL     1       3.483  14.109   1.430  1.00  0.00    -0.225 OA
BRANCH  30  33
ATOM     33  O   UNL     1       5.666  14.017   1.040  1.00  0.00    -0.445 OA
BRANCH  33  34
ATOM     34  C   UNL     1       5.805  15.300   1.706  1.00  0.00     0.270 C 
BRANCH  34  35
ATOM     35  C   UNL     1       7.254  15.713   1.702  1.00  0.00    -0.011 A 
ATOM     36  C   UNL     1       7.756  16.464   0.655  1.00  0.00     0.007 A 
ATOM     37  C   UNL     1       8.081  15.348   2.748  1.00  0.00     0.007 A 
ATOM     38  C   UNL     1       9.085  16.843   0.651  1.00  0.00     0.000 A 
ATOM     39  C   UNL     1       9.411  15.723   2.741  1.00  0.00     0.000 A 
ATOM     40  C   UNL     1       9.913  16.473   1.694  1.00  0.00     0.000 A 
ENDBRANCH  34  35
ENDBRANCH  33  34
ENDBRANCH  30  33
ENDBRANCH   1  29
TORSDOF 9
