REMARK SMILES O=C(/C=C/c1ccc2ccc(Cl)cc2n1)OCC(=O)c1ccc(O)cc1O
REMARK SMILES IDX 17 1 16 2 2 3 1 4 3 5 4 6 5 7 9 8 8 9 10 10 14 11 7 12 11 13
REMARK SMILES IDX 13 14 15 15 6 16 12 17 18 18 19 19 20 20 26 21 21 22 25 23
REMARK SMILES IDX 22 24 23 25 27 26 24 28
REMARK H PARENT 27 27 24 29
REMARK Flexibility Score: inf
ROOT
ATOM      1  C   UNL     1      -2.590   1.349   0.022  1.00  0.00     0.314 C 
ENDROOT
BRANCH   1   2
ATOM      2  O   UNL     1      -3.704   2.281   0.032  1.00  0.00    -0.454 OA
BRANCH   2   3
ATOM      3  C   UNL     1      -4.945   1.752   0.035  1.00  0.00     0.331 C 
ATOM      4  O   UNL     1      -5.091   0.545   0.029  1.00  0.00    -0.247 OA
BRANCH   3   5
ATOM      5  C   UNL     1      -6.117   2.632   0.045  1.00  0.00     0.095 C 
ATOM      6  C   UNL     1      -7.356   2.104   0.048  1.00  0.00     0.036 C 
BRANCH   6   7
ATOM      7  C   UNL     1      -8.534   2.990   0.059  1.00  0.00     0.064 A 
ATOM      8  C   UNL     1     -11.806   5.514   0.089  1.00  0.00     0.012 A 
ATOM      9  C   UNL     1     -10.720   4.625   0.079  1.00  0.00     0.000 A 
ATOM     10  C   UNL     1     -11.579   6.857   0.095  1.00  0.00     0.021 A 
ATOM     11  C   UNL     1      -9.396   5.137   0.075  1.00  0.00     0.072 A 
ATOM     12  C   UNL     1     -10.918   3.231   0.072  1.00  0.00     0.012 A 
ATOM     13  C   UNL     1     -10.279   7.363   0.092  1.00  0.00     0.043 A 
ATOM     14  C   UNL     1      -9.201   6.530   0.082  1.00  0.00     0.049 A 
ATOM     15  N   UNL     1      -8.358   4.299   0.070  1.00  0.00    -0.248 NA
ATOM     16  C   UNL     1      -9.821   2.422   0.062  1.00  0.00     0.029 A 
ATOM     17  Cl  UNL     1     -10.031   9.081   0.100  1.00  0.00    -0.084 Cl
ENDBRANCH   6   7
ENDBRANCH   3   5
ENDBRANCH   2   3
ENDBRANCH   1   2
BRANCH   1  18
ATOM     18  C   UNL     1      -1.293   2.116   0.020  1.00  0.00     0.204 C 
ATOM     19  O   UNL     1      -1.306   3.330   0.026  1.00  0.00    -0.290 OA
BRANCH  18  20
ATOM     20  C   UNL     1      -0.017   1.397   0.010  1.00  0.00     0.063 A 
ATOM     21  C   UNL     1       1.196   2.110   0.002  1.00  0.00     0.130 A 
ATOM     22  C   UNL     1       0.002  -0.004   0.002  1.00  0.00     0.019 A 
ATOM     23  C   UNL     1       2.395   1.419  -0.013  1.00  0.00     0.093 A 
ATOM     24  C   UNL     1       1.192  -0.671  -0.013  1.00  0.00     0.047 A 
ATOM     25  C   UNL     1       2.394   0.032  -0.021  1.00  0.00     0.119 A 
BRANCH  21  26
ATOM     26  O   UNL     1       1.190   3.466   0.009  1.00  0.00    -0.507 OA
ATOM     27  H   UNL     1       0.664   3.713   0.811  1.00  0.00     0.293 HD
ENDBRANCH  21  26
BRANCH  25  28
ATOM     28  O   UNL     1       3.571  -0.644  -0.037  1.00  0.00    -0.508 OA
ATOM     29  H   UNL     1       3.521  -1.226  -0.836  1.00  0.00     0.293 HD
ENDBRANCH  25  28
ENDBRANCH  18  20
ENDBRANCH   1  18
TORSDOF 8
