REMARK SMILES O=C(CSc1nnc(Nc2ccccc2F)s1)N1NC(c2ccc3ccccc3c2)=C[C@@H]1c1ccccc1
REMARK SMILES IDX 3 1 2 2 1 3 18 4 32 5 31 6 19 7 20 8 33 10 36 11 37 12 35 13
REMARK SMILES IDX 38 14 34 15 21 16 30 17 22 18 29 19 23 20 24 21 28 22 25 23
REMARK SMILES IDX 27 24 26 25 4 26 5 27 17 28 6 29 8 30 7 31 9 32 10 34 15 35
REMARK SMILES IDX 11 36 14 37 16 38 12 39 13 40
REMARK H PARENT 19 9 9 33
REMARK Flexibility Score: inf
ROOT
ATOM      1  C   UNL     1       3.838  -2.331  -0.535  1.00  0.00     0.179 C 
ENDROOT
BRANCH   1   2
ATOM      2  C   UNL     1       5.204  -2.968  -0.555  1.00  0.00     0.252 C 
ATOM      3  O   UNL     1       6.189  -2.299  -0.321  1.00  0.00    -0.272 OA
BRANCH   2   4
ATOM      4  N   UNL     1       5.332  -4.280  -0.834  1.00  0.00    -0.244 N 
ATOM      5  C   UNL     1       6.582  -5.055  -0.894  1.00  0.00     0.164 C 
ATOM      6  C   UNL     1       6.146  -6.461  -1.242  1.00  0.00     0.033 C 
ATOM      7  N   UNL     1       4.300  -5.186  -1.118  1.00  0.00    -0.295 N 
ATOM      8  C   UNL     1       4.821  -6.450  -1.356  1.00  0.00     0.060 C 
ATOM      9  H   UNL     1       3.299  -4.947  -1.146  1.00  0.00     0.188 HD
BRANCH   5  10
ATOM     10  C   UNL     1       7.276  -5.036   0.443  1.00  0.00    -0.019 A 
ATOM     11  C   UNL     1       8.550  -5.001   2.896  1.00  0.00     0.000 A 
ATOM     12  C   UNL     1       7.175  -5.125   2.834  1.00  0.00     0.000 A 
ATOM     13  C   UNL     1       9.289  -4.895   1.732  1.00  0.00     0.000 A 
ATOM     14  C   UNL     1       6.537  -5.137   1.607  1.00  0.00     0.006 A 
ATOM     15  C   UNL     1       8.652  -4.913   0.506  1.00  0.00     0.006 A 
ENDBRANCH   5  10
BRANCH   8  16
ATOM     16  C   UNL     1       4.003  -7.639  -1.690  1.00  0.00    -0.000 A 
ATOM     17  C   UNL     1       2.628  -7.521  -1.785  1.00  0.00     0.019 A 
ATOM     18  C   UNL     1       4.631  -8.876  -1.914  1.00  0.00     0.011 A 
ATOM     19  C   UNL     1       1.859  -8.651  -2.103  1.00  0.00    -0.018 A 
ATOM     20  C   UNL     1       3.904  -9.982  -2.217  1.00  0.00     0.009 A 
ATOM     21  C   UNL     1       2.503  -9.895  -2.321  1.00  0.00    -0.018 A 
ATOM     22  C   UNL     1       0.459  -8.572  -2.208  1.00  0.00     0.009 A 
ATOM     23  C   UNL     1       1.729 -11.024  -2.638  1.00  0.00     0.009 A 
ATOM     24  C   UNL     1      -0.258  -9.686  -2.516  1.00  0.00     0.001 A 
ATOM     25  C   UNL     1       0.376 -10.909  -2.731  1.00  0.00     0.001 A 
ENDBRANCH   8  16
ENDBRANCH   2   4
ENDBRANCH   1   2
BRANCH   1  26
ATOM     26  S   UNL     1       3.999  -0.569  -0.133  1.00  0.00    -0.083 SA
BRANCH  26  27
ATOM     27  C   UNL     1       2.340   0.024  -0.148  1.00  0.00     0.176 A 
ATOM     28  S   UNL     1       1.724   1.672   0.161  1.00  0.00    -0.068 S 
ATOM     29  N   UNL     1       1.220  -0.630  -0.391  1.00  0.00    -0.130 NA
ATOM     30  C   UNL     1      -0.013   1.323  -0.069  1.00  0.00     0.210 A 
ATOM     31  N   UNL     1       0.016   0.035  -0.350  1.00  0.00    -0.119 NA
BRANCH  30  32
ATOM     32  N   UNL     1      -1.103   2.181   0.019  1.00  0.00    -0.328 N 
ATOM     33  H   UNL     1      -0.954   3.190   0.159  1.00  0.00     0.169 HD
BRANCH  32  34
ATOM     34  C   UNL     1      -2.403   1.673  -0.082  1.00  0.00     0.077 A 
ATOM     35  C   UNL     1      -3.485   2.542  -0.182  1.00  0.00     0.146 A 
ATOM     36  C   UNL     1      -2.615   0.301  -0.088  1.00  0.00     0.029 A 
ATOM     37  C   UNL     1      -4.767   2.035  -0.283  1.00  0.00     0.041 A 
ATOM     38  F   UNL     1      -3.282   3.877  -0.182  1.00  0.00    -0.205 F 
ATOM     39  C   UNL     1      -3.900  -0.197  -0.184  1.00  0.00     0.002 A 
ATOM     40  C   UNL     1      -4.974   0.668  -0.284  1.00  0.00     0.003 A 
ENDBRANCH  32  34
ENDBRANCH  30  32
ENDBRANCH  26  27
ENDBRANCH   1  26
TORSDOF 8
