REMARK SMILES CC(=O)c1c(C)[nH]c(C(=O)CN2C(=O)[N-][C@@]3(CCCc4ccccc43)C2=O)c1C
REMARK SMILES IDX 9 1 10 2 8 3 29 4 28 5 4 6 7 7 5 8 6 10 2 11 3 12 1 13 11 14
REMARK SMILES IDX 12 15 13 16 26 17 15 18 14 19 27 20 16 21 25 22 17 23 20 24
REMARK SMILES IDX 24 25 18 26 19 27 21 28 23 29 22 30
REMARK H PARENT 7 9
REMARK Flexibility Score: inf
ROOT
ATOM      1  C   UNL     1      -0.590   1.034  -5.584  1.00  0.00     0.179 C 
ATOM      2  O   UNL     1      -1.141   2.077  -5.298  1.00  0.00    -0.293 OA
ENDROOT
BRANCH   1   3
ATOM      3  C   UNL     1      -0.531   0.611  -6.934  1.00  0.00     0.086 A 
ATOM      4  C   UNL     1      -1.804   2.591  -7.983  1.00  0.00     0.047 C 
ATOM      5  C   UNL     1      -1.060   1.282  -8.015  1.00  0.00    -0.011 A 
ATOM      6  C   UNL     1      -0.768   0.506  -9.160  1.00  0.00     0.041 A 
ATOM      7  N   UNL     1       0.061  -0.547  -7.395  1.00  0.00    -0.355 N 
ATOM      8  C   UNL     1      -0.077  -0.617  -8.726  1.00  0.00     0.023 A 
ATOM      9  H   UNL     1       0.535  -1.249  -6.808  1.00  0.00     0.166 HD
ATOM     10  C   UNL     1       0.434  -1.728  -9.606  1.00  0.00     0.065 C 
BRANCH   6  11
ATOM     11  C   UNL     1      -1.131   0.824 -10.544  1.00  0.00     0.161 C 
ATOM     12  O   UNL     1      -0.382   1.485 -11.232  1.00  0.00    -0.294 OA
ATOM     13  C   UNL     1      -2.437   0.331 -11.113  1.00  0.00     0.093 C 
ENDBRANCH   6  11
ENDBRANCH   1   3
BRANCH   1  14
ATOM     14  C   UNL     1       0.031   0.189  -4.502  1.00  0.00     0.095 C 
BRANCH  14  15
ATOM     15  N   UNL     1      -0.163   0.838  -3.203  1.00  0.00    -0.373 N 
ATOM     16  C   UNL     1      -1.220   0.631  -2.409  1.00  0.00     0.162 C 
ATOM     17  C   UNL     1       0.702   1.719  -2.659  1.00  0.00     0.160 C 
ATOM     18  N   UNL     1      -1.157   1.350  -1.272  1.00  0.00    -0.413 NA
ATOM     19  O   UNL     1      -2.135  -0.120  -2.684  1.00  0.00    -0.298 OA
ATOM     20  O   UNL     1       1.748   2.109  -3.134  1.00  0.00    -0.298 OA
ATOM     21  C   UNL     1       0.094   2.118  -1.334  1.00  0.00     0.062 C 
ATOM     22  C   UNL     1      -0.198   3.592  -1.319  1.00  0.00    -0.032 A 
ATOM     23  C   UNL     1       1.016   1.722  -0.188  1.00  0.00     0.019 C 
ATOM     24  C   UNL     1       0.022   4.375  -0.206  1.00  0.00    -0.044 A 
ATOM     25  C   UNL     1      -0.708   4.168  -2.475  1.00  0.00     0.005 A 
ATOM     26  C   UNL     1       0.448   2.300   1.115  1.00  0.00     0.006 C 
ATOM     27  C   UNL     1       0.591   3.820   1.073  1.00  0.00     0.036 C 
ATOM     28  C   UNL     1      -0.277   5.730  -0.249  1.00  0.00     0.004 A 
ATOM     29  C   UNL     1      -1.000   5.516  -2.517  1.00  0.00     0.000 A 
ATOM     30  C   UNL     1      -0.785   6.300  -1.399  1.00  0.00     0.000 A 
ENDBRANCH  14  15
ENDBRANCH   1  14
TORSDOF 4
