REMARK SMILES CSCC[C@H](NS(=O)(=O)/C=C/c1ccccc1)C(=O)NC[C@@H](c1cccs1)[NH+]1CCCC1
REMARK SMILES IDX 5 1 4 2 3 3 2 4 1 5 18 6 19 7 20 8 21 10 22 11 23 12 27 13
REMARK SMILES IDX 24 14 26 15 25 16 28 17 32 18 29 19 31 21 30 22 6 23 7 25
REMARK SMILES IDX 8 26 9 27 10 28 11 29 12 30 17 31 13 32 16 33 14 34 15 35
REMARK H PARENT 20 9 28 20 6 24
REMARK Flexibility Score: inf
ROOT
ATOM      1  C   UNL     1      -5.091   1.994  -3.362  1.00  0.00     0.159 C 
ENDROOT
BRANCH   1   2
ATOM      2  C   UNL     1      -5.516   0.690  -2.684  1.00  0.00     0.041 C 
BRANCH   2   3
ATOM      3  C   UNL     1      -5.553  -0.435  -3.721  1.00  0.00     0.071 C 
BRANCH   3   4
ATOM      4  S   UNL     1      -6.198  -1.946  -2.951  1.00  0.00    -0.165 SA
ATOM      5  C   UNL     1      -6.179  -3.166  -4.293  1.00  0.00     0.085 C 
ENDBRANCH   3   4
ENDBRANCH   2   3
ENDBRANCH   1   2
BRANCH   1   6
ATOM      6  C   UNL     1      -3.722   1.822  -3.969  1.00  0.00     0.238 C 
ATOM      7  O   UNL     1      -3.565   1.968  -5.162  1.00  0.00    -0.273 OA
ATOM      8  N   UNL     1      -2.672   1.505  -3.184  1.00  0.00    -0.348 N 
ATOM      9  H   UNL     1      -2.806   1.381  -2.171  1.00  0.00     0.163 HD
BRANCH   8  10
ATOM     10  C   UNL     1      -1.342   1.338  -3.774  1.00  0.00     0.186 C 
BRANCH  10  11
ATOM     11  C   UNL     1      -0.364   0.860  -2.699  1.00  0.00     0.244 C 
BRANCH  11  12
ATOM     12  C   UNL     1      -0.780  -0.505  -2.213  1.00  0.00     0.064 A 
ATOM     13  S   UNL     1      -0.507  -2.099  -2.970  1.00  0.00    -0.143 S 
ATOM     14  C   UNL     1      -1.462  -0.840  -1.091  1.00  0.00     0.022 A 
ATOM     15  C   UNL     1      -1.314  -3.105  -1.735  1.00  0.00     0.065 A 
ATOM     16  C   UNL     1      -1.736  -2.173  -0.846  1.00  0.00     0.012 A 
ENDBRANCH  11  12
BRANCH  11  17
ATOM     17  N   UNL     1       0.990   0.787  -3.265  1.00  0.00    -0.327 N 
ATOM     18  C   UNL     1       1.416   2.106  -3.798  1.00  0.00     0.263 C 
ATOM     19  C   UNL     1       1.991   0.477  -2.212  1.00  0.00     0.263 C 
ATOM     20  H   UNL     1       0.950   0.062  -3.995  1.00  0.00     0.348 HD
ATOM     21  C   UNL     1       2.957   2.028  -3.845  1.00  0.00     0.067 C 
ATOM     22  C   UNL     1       3.337   0.954  -2.800  1.00  0.00     0.067 C 
ENDBRANCH  11  17
ENDBRANCH  10  11
ENDBRANCH   8  10
ENDBRANCH   1   6
BRANCH   1  23
ATOM     23  N   UNL     1      -6.052   2.333  -4.415  1.00  0.00    -0.199 NA
ATOM     24  H   UNL     1      -5.952   1.923  -5.354  1.00  0.00     0.142 HD
BRANCH  23  25
ATOM     25  S   UNL     1      -7.298   3.375  -4.093  1.00  0.00     0.234 S 
ATOM     26  O   UNL     1      -8.007   3.549  -5.313  1.00  0.00    -0.208 OA
ATOM     27  O   UNL     1      -7.925   2.905  -2.908  1.00  0.00    -0.208 OA
BRANCH  25  28
ATOM     28  C   UNL     1      -6.583   4.937  -3.699  1.00  0.00     0.123 C 
ATOM     29  C   UNL     1      -6.791   5.980  -4.491  1.00  0.00     0.021 C 
BRANCH  29  30
ATOM     30  C   UNL     1      -6.191   7.290  -4.160  1.00  0.00    -0.025 A 
ATOM     31  C   UNL     1      -6.408   8.389  -4.991  1.00  0.00     0.008 A 
ATOM     32  C   UNL     1      -5.410   7.433  -3.013  1.00  0.00     0.008 A 
ATOM     33  C   UNL     1      -5.845   9.609  -4.677  1.00  0.00     0.001 A 
ATOM     34  C   UNL     1      -4.848   8.657  -2.713  1.00  0.00     0.001 A 
ATOM     35  C   UNL     1      -5.067   9.743  -3.541  1.00  0.00     0.000 A 
ENDBRANCH  29  30
ENDBRANCH  25  28
ENDBRANCH  23  25
ENDBRANCH   1  23
TORSDOF 12
