REMARK SMILES CC[NH+]1CCN(CCNc2nc(-c3ccccn3)nc3sc(C)c(-c4ccccc4)c23)CC1
REMARK SMILES IDX 8 1 7 2 6 3 3 4 33 5 4 6 32 8 5 9 2 10 1 11 9 12 10 14 11 15
REMARK SMILES IDX 31 16 12 17 20 18 24 19 19 20 21 21 22 22 23 23 13 24 18 25
REMARK SMILES IDX 14 26 17 27 15 28 16 29 25 30 30 31 26 32 29 33 27 34 28 35
REMARK H PARENT 3 7 9 13
REMARK Flexibility Score: inf
ROOT
ATOM      1  C   UNL     1       0.376  -4.347   4.056  1.00  0.00     0.130 C 
ENDROOT
BRANCH   1   2
ATOM      2  C   UNL     1       0.356  -3.816   5.491  1.00  0.00     0.106 C 
BRANCH   2   3
ATOM      3  N   UNL     1       0.554  -4.930   6.428  1.00  0.00    -0.291 NA
ATOM      4  N   UNL     1      -0.077  -6.551   8.682  1.00  0.00    -0.333 N 
ATOM      5  C   UNL     1      -0.301  -7.045   7.316  1.00  0.00     0.277 C 
ATOM      6  C   UNL     1       1.059  -5.620   8.722  1.00  0.00     0.277 C 
ATOM      7  H   UNL     1      -0.920  -6.037   8.976  1.00  0.00     0.348 HD
ATOM      8  C   UNL     1      -0.582  -5.861   6.388  1.00  0.00     0.146 C 
ATOM      9  C   UNL     1       0.778  -4.436   7.794  1.00  0.00     0.146 C 
BRANCH   4  10
ATOM     10  C   UNL     1       0.121  -7.664   9.619  1.00  0.00     0.258 C 
ATOM     11  C   UNL     1      -1.174  -8.470   9.735  1.00  0.00     0.071 C 
ENDBRANCH   4  10
ENDBRANCH   2   3
ENDBRANCH   1   2
BRANCH   1  12
ATOM     12  N   UNL     1       0.178  -3.236   3.122  1.00  0.00    -0.368 N 
ATOM     13  H   UNL     1       0.054  -2.279   3.479  1.00  0.00     0.162 HD
BRANCH  12  14
ATOM     14  C   UNL     1       0.159  -3.474   1.759  1.00  0.00     0.139 A 
ATOM     15  N   UNL     1       0.430  -4.678   1.287  1.00  0.00    -0.209 NA
ATOM     16  C   UNL     1      -0.153  -2.425   0.851  1.00  0.00     0.062 A 
ATOM     17  C   UNL     1       0.421  -4.944  -0.015  1.00  0.00     0.181 A 
ATOM     18  C   UNL     1      -0.144  -2.779  -0.515  1.00  0.00     0.130 A 
ATOM     19  C   UNL     1      -0.484  -1.030   1.122  1.00  0.00     0.009 A 
ATOM     20  N   UNL     1       0.137  -4.005  -0.906  1.00  0.00    -0.215 NA
ATOM     21  S   UNL     1      -0.573  -1.270  -1.343  1.00  0.00    -0.120 S 
ATOM     22  C   UNL     1      -0.748  -0.208   0.078  1.00  0.00     0.012 A 
ATOM     23  C   UNL     1      -1.109   1.254   0.111  1.00  0.00     0.057 C 
BRANCH  17  24
ATOM     24  C   UNL     1       0.735  -6.318  -0.479  1.00  0.00     0.108 A 
ATOM     25  N   UNL     1       1.025  -7.262   0.407  1.00  0.00    -0.253 NA
ATOM     26  C   UNL     1       0.728  -6.604  -1.843  1.00  0.00     0.032 A 
ATOM     27  C   UNL     1       1.304  -8.494   0.036  1.00  0.00     0.112 A 
ATOM     28  C   UNL     1       1.023  -7.890  -2.261  1.00  0.00     0.004 A 
ATOM     29  C   UNL     1       1.315  -8.848  -1.301  1.00  0.00     0.020 A 
ENDBRANCH  17  24
BRANCH  19  30
ATOM     30  C   UNL     1      -0.531  -0.523   2.514  1.00  0.00    -0.016 A 
ATOM     31  C   UNL     1       0.475   0.320   2.985  1.00  0.00     0.009 A 
ATOM     32  C   UNL     1      -1.584  -0.881   3.354  1.00  0.00     0.009 A 
ATOM     33  C   UNL     1       0.426   0.789   4.282  1.00  0.00     0.001 A 
ATOM     34  C   UNL     1      -1.619  -0.409   4.651  1.00  0.00     0.001 A 
ATOM     35  C   UNL     1      -0.618   0.426   5.113  1.00  0.00     0.000 A 
ENDBRANCH  19  30
ENDBRANCH  12  14
ENDBRANCH   1  12
TORSDOF 7
