REMARK SMILES COc1ccc2c(c1)c([C@@H]1[C@@H]3CCCC[C@@]3(O)CC[N@@H+]1CC(=O)Nc1cc(C)ccc1C)c(C)n2C
REMARK SMILES IDX 20 1 19 2 18 3 16 4 15 5 14 6 13 7 12 8 11 9 10 10 21 12
REMARK SMILES IDX 22 13 24 14 23 16 25 17 28 18 27 19 26 20 29 21 30 22 31 23
REMARK SMILES IDX 32 24 9 25 7 26 33 27 6 28 8 29 35 30 34 31 5 32 3 33 36 34
REMARK SMILES IDX 4 35 2 36 1 37 17 38
REMARK H PARENT 20 11 24 15 17 39
REMARK Flexibility Score: inf
ROOT
ATOM      1  N   UNL     1       0.907  -3.844  -1.524  1.00  0.00    -0.320 N 
ATOM      2  C   UNL     1       2.094  -4.442  -0.899  1.00  0.00     0.266 C 
ATOM      3  C   UNL     1       1.703  -5.099   0.428  1.00  0.00     0.097 C 
ATOM      4  C   UNL     1       1.091  -4.041   1.349  1.00  0.00     0.079 C 
ATOM      5  C   UNL     1       0.643  -4.687   2.660  1.00  0.00     0.036 C 
ATOM      6  C   UNL     1       0.038  -3.615   3.570  1.00  0.00     0.003 C 
ATOM      7  C   UNL     1      -1.164  -2.971   2.877  1.00  0.00     0.001 C 
ATOM      8  C   UNL     1      -0.717  -2.335   1.558  1.00  0.00     0.013 C 
ATOM      9  C   UNL     1      -0.121  -3.414   0.654  1.00  0.00     0.084 C 
ATOM     10  C   UNL     1       0.324  -2.798  -0.673  1.00  0.00     0.224 C 
ATOM     11  H   UNL     1       0.203  -4.588  -1.631  1.00  0.00     0.349 HD
ENDROOT
BRANCH   1  12
ATOM     12  C   UNL     1       1.223  -3.321  -2.860  1.00  0.00     0.364 C 
BRANCH  12  13
ATOM     13  C   UNL     1       2.051  -4.331  -3.611  1.00  0.00     0.279 C 
ATOM     14  N   UNL     1       2.627  -3.993  -4.782  1.00  0.00    -0.321 N 
ATOM     15  H   UNL     1       2.562  -3.025  -5.127  1.00  0.00     0.170 HD
ATOM     16  O   UNL     1       2.199  -5.449  -3.163  1.00  0.00    -0.268 OA
BRANCH  14  17
ATOM     17  C   UNL     1       3.315  -4.957  -5.528  1.00  0.00     0.044 A 
ATOM     18  C   UNL     1       5.121  -8.227  -4.952  1.00  0.00     0.044 C 
ATOM     19  C   UNL     1       4.533  -7.019  -5.636  1.00  0.00    -0.049 A 
ATOM     20  C   UNL     1       3.861  -6.067  -4.896  1.00  0.00     0.029 A 
ATOM     21  C   UNL     1       4.674  -6.863  -7.003  1.00  0.00     0.004 A 
ATOM     22  C   UNL     1       4.136  -5.756  -7.634  1.00  0.00     0.006 A 
ATOM     23  C   UNL     1       3.458  -4.803  -6.900  1.00  0.00    -0.027 A 
ATOM     24  C   UNL     1       2.872  -3.597  -7.589  1.00  0.00     0.046 C 
ENDBRANCH  14  17
ENDBRANCH  12  13
ENDBRANCH   1  12
BRANCH  10  25
ATOM     25  C   UNL     1       1.354  -1.730  -0.411  1.00  0.00     0.038 A 
ATOM     26  C   UNL     1       1.167  -0.517   0.388  1.00  0.00     0.013 A 
ATOM     27  C   UNL     1       2.616  -1.710  -0.867  1.00  0.00     0.024 A 
ATOM     28  C   UNL     1       2.394   0.170   0.347  1.00  0.00     0.049 A 
ATOM     29  C   UNL     1       0.094   0.015   1.106  1.00  0.00     0.057 A 
ATOM     30  N   UNL     1       3.254  -0.583  -0.425  1.00  0.00    -0.347 N 
ATOM     31  C   UNL     1       3.239  -2.771  -1.737  1.00  0.00     0.065 C 
ATOM     32  C   UNL     1       2.527   1.377   1.025  1.00  0.00     0.031 A 
ATOM     33  C   UNL     1       0.246   1.215   1.771  1.00  0.00     0.119 A 
ATOM     34  C   UNL     1       4.643  -0.229  -0.726  1.00  0.00     0.150 C 
ATOM     35  C   UNL     1       1.462   1.892   1.729  1.00  0.00     0.048 A 
BRANCH  33  36
ATOM     36  O   UNL     1      -0.798   1.741   2.467  1.00  0.00    -0.497 OA
ATOM     37  C   UNL     1      -0.573   2.985   3.133  1.00  0.00     0.278 C 
ENDBRANCH  33  36
ENDBRANCH  10  25
BRANCH   4  38
ATOM     38  O   UNL     1       2.061  -3.028   1.622  1.00  0.00    -0.389 OA
ATOM     39  H   UNL     1       2.343  -2.603   0.773  1.00  0.00     0.211 HD
ENDBRANCH   4  38
TORSDOF 6
