REMARK SMILES CC(C)(O)CCC[C@]1(C)OC(=O)[C@@]23CC=C4[C@@H](CC[C@H]5C(C)(C)[C@@H](O)CC[C@]45C)[C@]2(C)CC(=O)[C@H]13
REMARK SMILES IDX 6 1 7 2 8 3 22 4 21 5 24 6 20 7 23 8 26 9 28 10 19 11 27 12
REMARK SMILES IDX 16 13 29 14 18 15 17 16 15 17 30 18 14 19 13 20 32 21 31 22
REMARK SMILES IDX 35 23 11 24 33 25 10 26 12 27 34 28 9 29 25 30 5 32 2 33
REMARK SMILES IDX 1 34 3 35 4 36
REMARK H PARENT 25 31 4 37
REMARK Flexibility Score: inf
ROOT
ATOM      1  C   UNL     1      -6.420   2.980   6.599  1.00  0.00     0.007 C 
ENDROOT
BRANCH   1   2
ATOM      2  C   UNL     1      -5.234   3.887   6.267  1.00  0.00     0.049 C 
BRANCH   2   3
ATOM      3  C   UNL     1      -5.658   4.920   5.226  1.00  0.00     0.120 C 
ATOM      4  C   UNL     1       0.985   3.987  -1.609  1.00  0.00     0.014 C 
ATOM      5  C   UNL     1      -0.353   3.305  -1.324  1.00  0.00    -0.006 C 
ATOM      6  C   UNL     1      -0.135   1.811  -1.075  1.00  0.00     0.120 C 
ATOM      7  C   UNL     1      -1.110   3.961  -0.191  1.00  0.00     0.007 C 
ATOM      8  C   UNL     1      -1.209   3.419  -2.609  1.00  0.00     0.014 C 
ATOM      9  C   UNL     1       0.422   1.538   0.316  1.00  0.00     0.033 C 
ATOM     10  C   UNL     1      -0.615   3.622   1.208  1.00  0.00    -0.008 C 
ATOM     11  C   UNL     1      -1.226   5.474  -0.341  1.00  0.00     0.006 C 
ATOM     12  C   UNL     1      -0.519   2.108   1.378  1.00  0.00     0.014 C 
ATOM     13  C   UNL     1      -1.646   4.187   2.180  1.00  0.00    -0.064 C 
ATOM     14  C   UNL     1       0.736   4.259   1.536  1.00  0.00     0.016 C 
ATOM     15  C   UNL     1      -2.331   5.984   0.601  1.00  0.00     0.009 C 
ATOM     16  C   UNL     1      -1.998   5.641   2.048  1.00  0.00     0.023 C 
ATOM     17  C   UNL     1      -2.157   3.404   3.076  1.00  0.00    -0.026 C 
ATOM     18  C   UNL     1      -3.053   6.111   3.022  1.00  0.00    -0.002 C 
ATOM     19  C   UNL     1      -3.132   3.879   4.117  1.00  0.00     0.047 C 
ATOM     20  C   UNL     1      -3.968   5.043   3.560  1.00  0.00     0.091 C 
ATOM     21  C   UNL     1      -2.356   6.599   4.337  1.00  0.00     0.084 C 
ATOM     22  C   UNL     1      -3.861   7.258   2.413  1.00  0.00     0.014 C 
ATOM     23  C   UNL     1      -4.551   5.836   4.796  1.00  0.00     0.118 C 
ATOM     24  C   UNL     1      -5.207   4.526   2.952  1.00  0.00     0.314 C 
ATOM     25  C   UNL     1      -3.296   6.191   5.488  1.00  0.00     0.141 C 
ATOM     26  O   UNL     1      -6.098   4.306   3.957  1.00  0.00    -0.458 OA
ATOM     27  O   UNL     1      -5.395   4.328   1.772  1.00  0.00    -0.252 OA
ATOM     28  O   UNL     1      -3.052   6.176   6.668  1.00  0.00    -0.299 OA
ATOM     29  C   UNL     1      -6.819   5.760   5.807  1.00  0.00     0.057 C 
BRANCH   6  30
ATOM     30  O   UNL     1       0.774   1.302  -2.058  1.00  0.00    -0.393 OA
ATOM     31  H   UNL     1       1.641   1.776  -1.989  1.00  0.00     0.210 HD
ENDBRANCH   6  30
ENDBRANCH   2   3
ENDBRANCH   1   2
BRANCH   1  32
ATOM     32  C   UNL     1      -5.995   1.945   7.642  1.00  0.00     0.035 C 
BRANCH  32  33
ATOM     33  C   UNL     1      -7.181   1.038   7.975  1.00  0.00     0.059 C 
ATOM     34  C   UNL     1      -6.793   0.084   9.106  1.00  0.00     0.042 C 
ATOM     35  C   UNL     1      -8.370   1.895   8.415  1.00  0.00     0.042 C 
BRANCH  33  36
ATOM     36  O   UNL     1      -7.542   0.282   6.817  1.00  0.00    -0.390 OA
ATOM     37  H   UNL     1      -6.774  -0.273   6.531  1.00  0.00     0.211 HD
ENDBRANCH  33  36
ENDBRANCH  32  33
ENDBRANCH   1  32
TORSDOF 6
