REMARK SMILES CCOC(=O)c1c(NC(=O)CSc2nnc(Cc3cccn3C)n2C)sc2c1CCCCC2
REMARK SMILES IDX 8 1 9 2 10 3 7 5 6 6 28 7 26 8 27 9 4 10 5 11 3 12 2 13 1 14
REMARK SMILES IDX 29 15 33 17 32 18 31 19 30 20 11 22 12 23 13 24 24 25 14 26
REMARK SMILES IDX 16 27 25 28 15 29 17 30 18 31 22 32 19 33 21 34 23 35 20 36
REMARK H PARENT 8 4
REMARK Flexibility Score: 100.00
ROOT
ATOM      1  N   UNL     1       2.011   5.652   8.335  1.00  0.00    -0.316 N 
ATOM      2  C   UNL     1       2.642   5.047   7.309  1.00  0.00     0.235 C 
ATOM      3  O   UNL     1       3.687   4.463   7.499  1.00  0.00    -0.274 OA
ATOM      4  H   UNL     1       1.123   6.148   8.174  1.00  0.00     0.170 HD
ENDROOT
BRANCH   1   5
ATOM      5  C   UNL     1       2.559   5.607   9.608  1.00  0.00     0.110 A 
ATOM      6  C   UNL     1       2.068   6.167  10.778  1.00  0.00     0.098 A 
ATOM      7  C   UNL     1       2.837   5.966  11.999  1.00  0.00    -0.017 A 
ATOM      8  S   UNL     1       4.026   4.844  10.122  1.00  0.00    -0.122 S 
ATOM      9  C   UNL     1       3.975   5.257  11.845  1.00  0.00     0.011 A 
BRANCH   6  10
ATOM     10  C   UNL     1       0.818   6.930  10.786  1.00  0.00     0.341 C 
ATOM     11  O   UNL     1      -0.239   6.363  10.987  1.00  0.00    -0.246 OA
BRANCH  10  12
ATOM     12  O   UNL     1       0.839   8.261  10.570  1.00  0.00    -0.462 OA
BRANCH  12  13
ATOM     13  C   UNL     1      -0.438   8.953  10.593  1.00  0.00     0.230 C 
ATOM     14  C   UNL     1      -0.215  10.443  10.331  1.00  0.00     0.049 C 
ENDBRANCH  12  13
ENDBRANCH  10  12
ENDBRANCH   6  10
BRANCH   7  15
ATOM     15  C   UNL     1       2.390   6.516  13.348  1.00  0.00     0.037 CG0
ATOM     16  G   UNL     1       3.601   6.742  14.245  1.00  0.00     0.000 G0
ENDBRANCH   7  15
BRANCH   9  17
ATOM     17  C   UNL     1       4.984   4.907  12.894  1.00  0.00     0.047 C 
BRANCH  17  18
ATOM     18  C   UNL     1       4.262   4.331  14.119  1.00  0.00     0.006 C 
BRANCH  18  19
ATOM     19  C   UNL     1       3.907   5.483  15.055  1.00  0.00     0.001 C 
BRANCH  19  20
ATOM     20  C   UNL     1       3.601   6.742  14.245  1.00  0.00     0.005 CG0
ATOM     21  G   UNL     1       2.390   6.516  13.348  1.00  0.00     0.000 G0
ENDBRANCH  19  20
ENDBRANCH  18  19
ENDBRANCH  17  18
ENDBRANCH   9  17
ENDBRANCH   1   5
BRANCH   2  22
ATOM     22  C   UNL     1       2.046   5.096   5.925  1.00  0.00     0.178 C 
BRANCH  22  23
ATOM     23  S   UNL     1       3.118   4.199   4.775  1.00  0.00    -0.076 SA
BRANCH  23  24
ATOM     24  C   UNL     1       2.210   4.411   3.280  1.00  0.00     0.191 A 
ATOM     25  N   UNL     1       2.551   3.933   2.048  1.00  0.00    -0.309 N 
ATOM     26  N   UNL     1       1.076   5.058   3.142  1.00  0.00    -0.123 NA
ATOM     27  C   UNL     1       1.555   4.341   1.204  1.00  0.00     0.139 A 
ATOM     28  C   UNL     1       3.737   3.147   1.702  1.00  0.00     0.154 C 
ATOM     29  N   UNL     1       0.698   5.018   1.914  1.00  0.00    -0.134 NA
BRANCH  27  30
ATOM     30  C   UNL     1       1.469   4.064  -0.275  1.00  0.00     0.131 C 
BRANCH  30  31
ATOM     31  C   UNL     1       2.041   5.231  -1.039  1.00  0.00     0.025 A 
ATOM     32  N   UNL     1       1.331   6.275  -1.552  1.00  0.00    -0.354 N 
ATOM     33  C   UNL     1       3.343   5.421  -1.333  1.00  0.00     0.023 A 
ATOM     34  C   UNL     1       2.195   7.128  -2.174  1.00  0.00     0.085 A 
ATOM     35  C   UNL     1      -0.120   6.452  -1.452  1.00  0.00     0.149 C 
ATOM     36  C   UNL     1       3.440   6.624  -2.059  1.00  0.00     0.020 A 
ENDBRANCH  30  31
ENDBRANCH  27  30
ENDBRANCH  23  24
ENDBRANCH  22  23
ENDBRANCH   2  22
TORSDOF 9
