REMARK SMILES Cc1cc2nc3c([C@@H]4OC[C@@H](O)[C@@H]4O)nn(-c4ccccc4)c3nc2cc1C
REMARK SMILES IDX 1 1 2 2 3 3 4 4 25 5 26 6 27 7 28 8 24 9 23 10 6 11 5 12
REMARK SMILES IDX 7 13 15 14 16 15 8 16 9 17 13 18 10 19 11 20 14 21 12 23
REMARK SMILES IDX 17 25 22 26 18 27 21 28 19 29 20 30
REMARK H PARENT 14 22 12 24
REMARK Flexibility Score: inf
ROOT
ATOM      1  C   UNL     1       2.260   0.782  -0.440  1.00  0.00     0.044 C 
ATOM      2  C   UNL     1       1.055   1.657  -0.206  1.00  0.00    -0.046 A 
ATOM      3  C   UNL     1      -0.151   1.075   0.028  1.00  0.00     0.034 A 
ATOM      4  C   UNL     1      -1.284   1.886   0.242  1.00  0.00     0.090 A 
ATOM      5  C   UNL     1      -1.125   3.341   0.217  1.00  0.00     0.092 A 
ATOM      6  C   UNL     1       0.153   3.878  -0.032  1.00  0.00     0.034 A 
ATOM      7  C   UNL     1       1.205   3.042  -0.236  1.00  0.00    -0.046 A 
ATOM      8  C   UNL     1       2.568   3.627  -0.502  1.00  0.00     0.044 C 
ATOM      9  N   UNL     1      -2.179   4.134   0.421  1.00  0.00    -0.225 NA
ATOM     10  C   UNL     1      -3.364   3.599   0.636  1.00  0.00     0.182 A 
ATOM     11  C   UNL     1      -3.522   2.143   0.667  1.00  0.00     0.135 A 
ATOM     12  N   UNL     1      -2.482   1.350   0.470  1.00  0.00    -0.241 NA
ATOM     13  C   UNL     1      -4.941   1.912   0.936  1.00  0.00     0.122 A 
ATOM     14  N   UNL     1      -5.524   3.069   1.046  1.00  0.00    -0.166 NA
ATOM     15  N   UNL     1      -4.615   4.116   0.873  1.00  0.00    -0.213 N 
ENDROOT
BRANCH  13  16
ATOM     16  C   UNL     1      -5.611   0.568   1.064  1.00  0.00     0.202 C 
ATOM     17  O   UNL     1      -6.902   0.586   0.417  1.00  0.00    -0.366 OA
ATOM     18  C   UNL     1      -5.917   0.258   2.546  1.00  0.00     0.180 C 
ATOM     19  C   UNL     1      -7.636  -0.511   1.002  1.00  0.00     0.195 C 
ATOM     20  C   UNL     1      -7.280  -0.468   2.504  1.00  0.00     0.172 C 
BRANCH  18  21
ATOM     21  O   UNL     1      -6.014   1.468   3.301  1.00  0.00    -0.387 OA
ATOM     22  H   UNL     1      -6.739   2.027   2.924  1.00  0.00     0.211 HD
ENDBRANCH  18  21
BRANCH  20  23
ATOM     23  O   UNL     1      -7.159  -1.791   3.031  1.00  0.00    -0.388 OA
ATOM     24  H   UNL     1      -6.842  -1.738   3.967  1.00  0.00     0.211 HD
ENDBRANCH  20  23
ENDBRANCH  13  16
BRANCH  15  25
ATOM     25  C   UNL     1      -4.930   5.479   0.933  1.00  0.00     0.067 A 
ATOM     26  C   UNL     1      -6.157   5.931   0.465  1.00  0.00     0.028 A 
ATOM     27  C   UNL     1      -4.018   6.381   1.465  1.00  0.00     0.028 A 
ATOM     28  C   UNL     1      -6.464   7.277   0.526  1.00  0.00     0.002 A 
ATOM     29  C   UNL     1      -4.329   7.726   1.518  1.00  0.00     0.002 A 
ATOM     30  C   UNL     1      -5.552   8.173   1.051  1.00  0.00     0.000 A 
ENDBRANCH  15  25
TORSDOF 4
