REMARK SMILES Cc1cc(C)c(C[N@@H+]2CC[C@@H](N3CCN(c4ccccn4)CC3)[C@H](O)C2)c(-n2cccn2)c1
REMARK SMILES IDX 8 1 9 2 10 3 11 4 24 5 26 6 7 8 6 9 1 10 2 11 33 12 3 13
REMARK SMILES IDX 27 14 4 15 5 16 28 17 32 18 29 19 31 20 30 21 25 22 12 24
REMARK SMILES IDX 23 25 13 26 22 27 14 28 15 29 16 30 21 31 17 32 20 33 18 34
REMARK SMILES IDX 19 35
REMARK H PARENT 8 7 25 23
REMARK Flexibility Score: inf
ROOT
ATOM      1  N   UNL     1      -6.456  -4.773  -0.947  1.00  0.00    -0.329 N 
ATOM      2  C   UNL     1      -6.368  -3.920   0.245  1.00  0.00     0.264 C 
ATOM      3  C   UNL     1      -5.055  -3.133   0.217  1.00  0.00     0.083 C 
ATOM      4  C   UNL     1      -5.005  -2.278  -1.052  1.00  0.00     0.096 C 
ATOM      5  C   UNL     1      -5.148  -3.186  -2.277  1.00  0.00     0.186 C 
ATOM      6  C   UNL     1      -6.458  -3.970  -2.176  1.00  0.00     0.296 C 
ATOM      7  H   UNL     1      -5.619  -5.374  -0.966  1.00  0.00     0.348 HD
ENDROOT
BRANCH   1   8
ATOM      8  C   UNL     1      -7.637  -5.644  -0.884  1.00  0.00     0.301 C 
BRANCH   8   9
ATOM      9  C   UNL     1      -7.671  -6.351   0.446  1.00  0.00     0.035 A 
ATOM     10  C   UNL     1      -7.763  -8.364   4.218  1.00  0.00     0.044 C 
ATOM     11  C   UNL     1      -7.732  -7.652   2.889  1.00  0.00    -0.049 A 
ATOM     12  C   UNL     1      -8.476  -6.503   2.705  1.00  0.00     0.032 A 
ATOM     13  C   UNL     1      -6.959  -8.150   1.857  1.00  0.00     0.007 A 
ATOM     14  C   UNL     1      -8.443  -5.845   1.482  1.00  0.00     0.074 A 
ATOM     15  C   UNL     1      -6.928  -7.500   0.637  1.00  0.00    -0.040 A 
ATOM     16  C   UNL     1      -6.085  -8.047  -0.486  1.00  0.00     0.045 C 
BRANCH  14  17
ATOM     17  N   UNL     1      -9.193  -4.676   1.294  1.00  0.00    -0.240 N 
ATOM     18  N   UNL     1      -9.157  -3.846   0.166  1.00  0.00    -0.177 NA
ATOM     19  C   UNL     1     -10.074  -4.145   2.171  1.00  0.00     0.115 A 
ATOM     20  C   UNL     1      -9.993  -2.859   0.357  1.00  0.00     0.135 A 
ATOM     21  C   UNL     1     -10.583  -3.021   1.615  1.00  0.00     0.042 A 
ENDBRANCH  14  17
ENDBRANCH   8   9
ENDBRANCH   1   8
BRANCH   5  22
ATOM     22  O   UNL     1      -5.158  -2.389  -3.463  1.00  0.00    -0.386 OA
ATOM     23  H   UNL     1      -4.312  -1.880  -3.527  1.00  0.00     0.211 HD
ENDBRANCH   5  22
BRANCH   4  24
ATOM     24  N   UNL     1      -3.722  -1.567  -1.115  1.00  0.00    -0.294 NA
ATOM     25  C   UNL     1      -2.601  -2.511  -1.228  1.00  0.00     0.106 C 
ATOM     26  C   UNL     1      -3.550  -0.687   0.049  1.00  0.00     0.106 C 
ATOM     27  C   UNL     1      -1.292  -1.731  -1.370  1.00  0.00     0.133 C 
ATOM     28  C   UNL     1      -2.241   0.094  -0.093  1.00  0.00     0.133 C 
ATOM     29  N   UNL     1      -1.121  -0.851  -0.206  1.00  0.00    -0.354 N 
BRANCH  29  30
ATOM     30  C   UNL     1       0.094  -0.177  -0.265  1.00  0.00     0.128 A 
ATOM     31  N   UNL     1       0.114   1.146  -0.218  1.00  0.00    -0.239 NA
ATOM     32  C   UNL     1       1.278  -0.900  -0.375  1.00  0.00     0.047 A 
ATOM     33  C   UNL     1       1.245   1.823  -0.272  1.00  0.00     0.113 A 
ATOM     34  C   UNL     1       2.479  -0.217  -0.433  1.00  0.00     0.005 A 
ATOM     35  C   UNL     1       2.457   1.170  -0.380  1.00  0.00     0.020 A 
ENDBRANCH  29  30
ENDBRANCH   4  24
TORSDOF 6
