REMARK SMILES O=C(CCNS(=O)(=O)c1ccc(C2CCCCC2)cc1)NNC(=S)NCc1ccc(F)cc1
REMARK SMILES IDX 21 1 2 2 1 3 22 5 23 7 24 8 25 9 26 11 27 12 28 13 29 14
REMARK SMILES IDX 33 15 30 16 32 17 31 18 3 19 4 20 5 21 6 23 7 24 8 25 9 26
REMARK SMILES IDX 20 27 10 28 19 29 11 30 12 31 13 32 18 33 14 34 17 35 15 36
REMARK SMILES IDX 16 37
REMARK H PARENT 21 4 22 6 25 10 5 22
REMARK Flexibility Score: inf
ROOT
ATOM      1  N   UNL     1       2.342  -0.403  -0.022  1.00  0.00    -0.268 N 
ATOM      2  C   UNL     1       3.518  -1.061  -0.037  1.00  0.00     0.239 C 
ATOM      3  O   UNL     1       4.560  -0.441  -0.044  1.00  0.00    -0.273 OA
ATOM      4  H   UNL     1       1.457  -0.930  -0.017  1.00  0.00     0.191 HD
ENDROOT
BRANCH   1   5
ATOM      5  N   UNL     1       2.323   0.998  -0.015  1.00  0.00    -0.274 N 
ATOM      6  H   UNL     1       3.208   1.525  -0.020  1.00  0.00     0.190 HD
BRANCH   5   7
ATOM      7  C   UNL     1       1.147   1.655   0.000  1.00  0.00     0.185 C 
ATOM      8  S   UNL     1       1.124   3.367   0.009  1.00  0.00    -0.039 S 
BRANCH   7   9
ATOM      9  N   UNL     1      -0.011   0.966   0.007  1.00  0.00    -0.357 N 
ATOM     10  H   UNL     1       0.003  -0.064   0.006  1.00  0.00     0.163 HD
BRANCH   9  11
ATOM     11  C   UNL     1      -1.290   1.681   0.017  1.00  0.00     0.151 C 
BRANCH  11  12
ATOM     12  C   UNL     1      -2.422   0.686   0.017  1.00  0.00    -0.029 A 
ATOM     13  C   UNL     1      -2.950   0.241  -1.180  1.00  0.00     0.008 A 
ATOM     14  C   UNL     1      -3.985  -0.675  -1.181  1.00  0.00     0.039 A 
ATOM     15  C   UNL     1      -2.935   0.224   1.215  1.00  0.00     0.008 A 
ATOM     16  C   UNL     1      -4.500  -1.139   0.017  1.00  0.00     0.123 A 
ATOM     17  C   UNL     1      -3.973  -0.688   1.216  1.00  0.00     0.039 A 
ATOM     18  F   UNL     1      -5.514  -2.030   0.017  1.00  0.00    -0.207 F 
ENDBRANCH  11  12
ENDBRANCH   9  11
ENDBRANCH   7   9
ENDBRANCH   5   7
ENDBRANCH   1   5
BRANCH   2  19
ATOM     19  C   UNL     1       3.539  -2.568  -0.045  1.00  0.00     0.118 C 
BRANCH  19  20
ATOM     20  C   UNL     1       4.988  -3.058  -0.062  1.00  0.00     0.109 C 
BRANCH  20  21
ATOM     21  N   UNL     1       5.008  -4.523  -0.070  1.00  0.00    -0.211 NA
ATOM     22  H   UNL     1       4.155  -5.051   0.166  1.00  0.00     0.141 HD
BRANCH  21  23
ATOM     23  S   UNL     1       6.401  -5.330  -0.459  1.00  0.00     0.240 S 
ATOM     24  O   UNL     1       6.109  -6.717  -0.352  1.00  0.00    -0.207 OA
ATOM     25  O   UNL     1       6.888  -4.744  -1.658  1.00  0.00    -0.207 OA
BRANCH  23  26
ATOM     26  C   UNL     1       7.582  -4.965   0.797  1.00  0.00     0.082 A 
ATOM     27  C   UNL     1       7.671  -5.771   1.917  1.00  0.00     0.022 A 
ATOM     28  C   UNL     1       8.423  -3.877   0.659  1.00  0.00     0.022 A 
ATOM     29  C   UNL     1       8.598  -5.485   2.901  1.00  0.00     0.005 A 
ATOM     30  C   UNL     1       9.346  -3.588   1.646  1.00  0.00     0.005 A 
ATOM     31  C   UNL     1       9.436  -4.394   2.766  1.00  0.00    -0.045 A 
BRANCH  31  32
ATOM     32  C   UNL     1      10.446  -4.082   3.840  1.00  0.00     0.019 C 
ATOM     33  C   UNL     1      11.854  -4.123   3.242  1.00  0.00     0.008 C 
ATOM     34  C   UNL     1      10.174  -2.688   4.407  1.00  0.00     0.008 C 
ATOM     35  C   UNL     1      12.880  -3.806   4.332  1.00  0.00     0.001 C 
ATOM     36  C   UNL     1      11.200  -2.371   5.497  1.00  0.00     0.001 C 
ATOM     37  C   UNL     1      12.608  -2.412   4.900  1.00  0.00     0.000 C 
ENDBRANCH  31  32
ENDBRANCH  23  26
ENDBRANCH  21  23
ENDBRANCH  20  21
ENDBRANCH  19  20
ENDBRANCH   2  19
TORSDOF 11
