REMARK SMILES Cc1ccc(C)c(C[N@@H+]2C[C@H](Sc3nc4ccccc4[nH]3)C[C@H]2C(=O)NCc2cccnc2)c1
REMARK SMILES IDX 10 1 11 2 22 3 23 4 9 5 8 7 7 8 1 9 2 10 34 11 3 12 4 13
REMARK SMILES IDX 5 14 6 15 24 16 25 17 26 18 27 20 28 21 33 22 29 23 32 24
REMARK SMILES IDX 30 25 31 26 12 27 13 28 14 29 21 30 15 31 20 32 16 34 19 35
REMARK SMILES IDX 17 36 18 37
REMARK H PARENT 9 6 26 19 21 33
REMARK Flexibility Score: inf
ROOT
ATOM      1  C   UNL     1      -1.458   0.616  -6.349  1.00  0.00     0.278 C 
ATOM      2  C   UNL     1      -2.808   0.068  -5.837  1.00  0.00     0.116 C 
ATOM      3  C   UNL     1      -2.890   0.518  -4.364  1.00  0.00     0.096 C 
ATOM      4  C   UNL     1      -1.583   1.300  -4.110  1.00  0.00     0.275 C 
ATOM      5  N   UNL     1      -0.668   0.777  -5.131  1.00  0.00    -0.320 N 
ATOM      6  H   UNL     1      -0.254  -0.119  -4.838  1.00  0.00     0.349 HD
ENDROOT
BRANCH   5   7
ATOM      7  C   UNL     1       0.465   1.729  -5.354  1.00  0.00     0.300 C 
BRANCH   7   8
ATOM      8  C   UNL     1       1.462   1.124  -6.309  1.00  0.00     0.009 A 
ATOM      9  C   UNL     1       2.480   1.470  -9.928  1.00  0.00     0.044 C 
ATOM     10  C   UNL     1       2.426   1.001  -8.498  1.00  0.00    -0.051 A 
ATOM     11  C   UNL     1       1.512   1.556  -7.622  1.00  0.00     0.013 A 
ATOM     12  C   UNL     1       3.291   0.015  -8.061  1.00  0.00     0.004 A 
ATOM     13  C   UNL     1       3.242  -0.416  -6.748  1.00  0.00     0.004 A 
ATOM     14  C   UNL     1       2.330   0.142  -5.871  1.00  0.00    -0.042 A 
ATOM     15  C   UNL     1       2.280  -0.324  -4.439  1.00  0.00     0.045 C 
ENDBRANCH   7   8
ENDBRANCH   5   7
BRANCH   4  16
ATOM     16  C   UNL     1      -1.069   1.027  -2.720  1.00  0.00     0.278 C 
ATOM     17  O   UNL     1       0.017   0.509  -2.566  1.00  0.00    -0.268 OA
ATOM     18  N   UNL     1      -1.816   1.359  -1.648  1.00  0.00    -0.347 N 
ATOM     19  H   UNL     1      -2.738   1.799  -1.779  1.00  0.00     0.164 HD
BRANCH  18  20
ATOM     20  C   UNL     1      -1.316   1.094  -0.297  1.00  0.00     0.153 C 
BRANCH  20  21
ATOM     21  C   UNL     1      -2.333   1.555   0.715  1.00  0.00    -0.010 A 
ATOM     22  C   UNL     1      -3.316   0.693   1.162  1.00  0.00     0.116 A 
ATOM     23  C   UNL     1      -2.292   2.849   1.213  1.00  0.00     0.009 A 
ATOM     24  N   UNL     1      -4.210   1.089   2.047  1.00  0.00    -0.264 NA
ATOM     25  C   UNL     1      -3.251   3.231   2.138  1.00  0.00     0.020 A 
ATOM     26  C   UNL     1      -4.204   2.313   2.539  1.00  0.00     0.111 A 
ENDBRANCH  20  21
ENDBRANCH  18  20
ENDBRANCH   4  16
BRANCH   2  27
ATOM     27  S   UNL     1      -4.177   0.773  -6.787  1.00  0.00    -0.079 SA
BRANCH  27  28
ATOM     28  C   UNL     1      -3.910  -0.016  -8.340  1.00  0.00     0.166 A 
ATOM     29  N   UNL     1      -2.941  -0.859  -8.600  1.00  0.00    -0.223 NA
ATOM     30  N   UNL     1      -4.681   0.163  -9.454  1.00  0.00    -0.333 N 
ATOM     31  C   UNL     1      -3.034  -1.278  -9.889  1.00  0.00     0.089 A 
ATOM     32  C   UNL     1      -4.144  -0.630 -10.456  1.00  0.00     0.066 A 
ATOM     33  H   UNL     1      -5.506   0.773  -9.535  1.00  0.00     0.169 HD
ATOM     34  C   UNL     1      -2.279  -2.157 -10.669  1.00  0.00     0.030 A 
ATOM     35  C   UNL     1      -4.481  -0.865 -11.780  1.00  0.00     0.028 A 
ATOM     36  C   UNL     1      -2.628  -2.378 -11.982  1.00  0.00     0.002 A 
ATOM     37  C   UNL     1      -3.725  -1.736 -12.537  1.00  0.00     0.002 A 
ENDBRANCH  27  28
ENDBRANCH   2  27
TORSDOF 7
