REMARK SMILES O=C1/C(=C/c2ccc(O)cc2)S/C(=N\N=C\c2cccc(OCc3ccccc3)c2)N1Cc1ccco1
REMARK SMILES IDX 21 1 20 2 19 3 18 4 17 5 30 6 22 7 23 8 24 9 27 10 28 11
REMARK SMILES IDX 26 12 29 13 25 14 16 15 15 16 14 17 13 18 12 19 31 20 3 21
REMARK SMILES IDX 2 22 4 23 1 24 32 25 33 26 37 27 34 28 36 29 35 30 5 31
REMARK SMILES IDX 11 32 6 33 10 34 7 35 8 36 9 37
REMARK H PARENT 9 38
REMARK Flexibility Score: inf
ROOT
ATOM      1  C   UNL     1      -5.182   8.665   3.897  1.00  0.00     0.120 A 
ATOM      2  C   UNL     1      -4.576   9.166   5.042  1.00  0.00     0.046 A 
ATOM      3  C   UNL     1      -3.295   8.772   5.384  1.00  0.00     0.004 A 
ATOM      4  C   UNL     1      -2.609   7.877   4.589  1.00  0.00     0.010 A 
ATOM      5  C   UNL     1      -3.210   7.366   3.434  1.00  0.00    -0.002 A 
ATOM      6  C   UNL     1      -4.503   7.771   3.088  1.00  0.00     0.056 A 
ENDROOT
BRANCH   1   7
ATOM      7  O   UNL     1      -6.441   9.058   3.568  1.00  0.00    -0.489 OA
BRANCH   7   8
ATOM      8  C   UNL     1      -7.080   9.988   4.444  1.00  0.00     0.265 C 
BRANCH   8   9
ATOM      9  C   UNL     1      -8.458  10.305   3.922  1.00  0.00    -0.011 A 
ATOM     10  C   UNL     1     -10.986  10.886   2.964  1.00  0.00     0.000 A 
ATOM     11  C   UNL     1      -9.904  11.650   2.568  1.00  0.00     0.000 A 
ATOM     12  C   UNL     1     -10.804   9.831   3.839  1.00  0.00     0.000 A 
ATOM     13  C   UNL     1      -8.641  11.362   3.051  1.00  0.00     0.007 A 
ATOM     14  C   UNL     1      -9.540   9.541   4.318  1.00  0.00     0.007 A 
ENDBRANCH   8   9
ENDBRANCH   7   8
ENDBRANCH   1   7
BRANCH   5  15
ATOM     15  C   UNL     1      -2.483   6.411   2.583  1.00  0.00     0.144 C 
ATOM     16  N   UNL     1      -1.273   6.038   2.906  1.00  0.00    -0.156 NA
BRANCH  16  17
ATOM     17  N   UNL     1      -0.636   5.201   2.160  1.00  0.00    -0.125 NA
ATOM     18  C   UNL     1       0.586   4.825   2.486  1.00  0.00     0.198 C 
ATOM     19  S   UNL     1       1.562   5.324   3.896  1.00  0.00    -0.044 SA
ATOM     20  N   UNL     1       1.418   3.950   1.824  1.00  0.00    -0.277 N 
ATOM     21  C   UNL     1       3.025   4.361   3.539  1.00  0.00     0.081 C 
ATOM     22  C   UNL     1       2.627   3.685   2.290  1.00  0.00     0.267 C 
ATOM     23  C   UNL     1       4.190   4.275   4.232  1.00  0.00     0.029 C 
ATOM     24  O   UNL     1       3.376   2.918   1.714  1.00  0.00    -0.268 OA
BRANCH  20  25
ATOM     25  C   UNL     1       0.961   3.311   0.588  1.00  0.00     0.203 C 
BRANCH  25  26
ATOM     26  C   UNL     1       0.277   2.010   0.918  1.00  0.00     0.123 A 
ATOM     27  O   UNL     1       0.873   0.809   1.008  1.00  0.00    -0.467 OA
ATOM     28  C   UNL     1      -1.035   1.853   1.173  1.00  0.00     0.047 A 
ATOM     29  C   UNL     1      -0.042  -0.123   1.320  1.00  0.00     0.195 A 
ATOM     30  C   UNL     1      -1.241   0.477   1.426  1.00  0.00     0.042 A 
ENDBRANCH  25  26
ENDBRANCH  20  25
BRANCH  23  31
ATOM     31  C   UNL     1       4.311   4.916   5.547  1.00  0.00    -0.024 A 
ATOM     32  C   UNL     1       3.162   5.300   6.250  1.00  0.00     0.012 A 
ATOM     33  C   UNL     1       5.575   5.139   6.107  1.00  0.00     0.012 A 
ATOM     34  C   UNL     1       3.282   5.901   7.483  1.00  0.00     0.047 A 
ATOM     35  C   UNL     1       5.683   5.746   7.338  1.00  0.00     0.047 A 
ATOM     36  C   UNL     1       4.539   6.125   8.031  1.00  0.00     0.115 A 
BRANCH  36  37
ATOM     37  O   UNL     1       4.651   6.718   9.248  1.00  0.00    -0.508 OA
ATOM     38  H   UNL     1       5.224   7.510   9.094  1.00  0.00     0.293 HD
ENDBRANCH  36  37
ENDBRANCH  23  31
ENDBRANCH  16  17
ENDBRANCH   5  15
TORSDOF 9
