REMARK SMILES C[C@@H]([NH2+]CCN(C)C)[C@H]1CC[C@@H]2[C@@H]3CC[C@@H]4C[C@@H](O)CC[C@@]4(C)[C@@H]3CC[C@]21C
REMARK SMILES IDX 3 1 2 4 1 5 9 6 27 7 10 8 12 9 26 10 28 11 11 12 13 13 25 14
REMARK SMILES IDX 24 15 14 16 22 17 15 18 16 19 21 20 23 21 17 22 20 23 18 24
REMARK SMILES IDX 19 25 4 27 5 28 6 29 7 30 8 31
REMARK H PARENT 3 2 3 3 19 26
REMARK Flexibility Score: inf
ROOT
ATOM      1  N   UNL     1      -1.565   7.755  -0.431  1.00  0.00    -0.343 N 
ATOM      2  H   UNL     1      -1.166   8.578  -0.903  1.00  0.00     0.346 HD
ATOM      3  H   UNL     1      -1.137   6.903  -0.820  1.00  0.00     0.346 HD
ENDROOT
BRANCH   1   4
ATOM      4  C   UNL     1      -1.279   7.832   1.014  1.00  0.00     0.182 C 
ATOM      5  C   UNL     1      -0.982   9.284   1.397  1.00  0.00     0.075 C 
BRANCH   4   6
ATOM      6  C   UNL     1      -0.067   6.965   1.332  1.00  0.00     0.053 C 
ATOM      7  C   UNL     1      -0.372   5.473   1.144  1.00  0.00    -0.021 C 
ATOM      8  C   UNL     1       0.319   7.092   2.829  1.00  0.00     0.010 C 
ATOM      9  C   UNL     1      -1.008   5.107   2.498  1.00  0.00    -0.001 C 
ATOM     10  C   UNL     1      -1.330   5.100   0.038  1.00  0.00     0.008 C 
ATOM     11  C   UNL     1       0.974   4.783   0.903  1.00  0.00     0.012 C 
ATOM     12  C   UNL     1      -0.021   5.728   3.493  1.00  0.00     0.005 C 
ATOM     13  C   UNL     1      -1.319   3.641   2.640  1.00  0.00    -0.004 C 
ATOM     14  C   UNL     1      -1.541   3.570   0.095  1.00  0.00     0.005 C 
ATOM     15  C   UNL     1      -2.112   3.154   1.437  1.00  0.00    -0.001 C 
ATOM     16  C   UNL     1      -0.129   2.800   3.050  1.00  0.00     0.004 C 
ATOM     17  C   UNL     1      -2.497   1.689   1.512  1.00  0.00    -0.026 C 
ATOM     18  C   UNL     1      -0.251   1.363   2.525  1.00  0.00     0.004 C 
ATOM     19  C   UNL     1      -1.724   0.996   2.634  1.00  0.00    -0.002 C 
ATOM     20  C   UNL     1      -3.990   1.514   1.810  1.00  0.00     0.010 C 
ATOM     21  C   UNL     1      -2.189   1.006   0.179  1.00  0.00     0.012 C 
ATOM     22  C   UNL     1      -1.990  -0.498   2.631  1.00  0.00     0.036 C 
ATOM     23  C   UNL     1      -4.337   0.025   1.848  1.00  0.00     0.032 C 
ATOM     24  C   UNL     1      -3.486  -0.737   2.857  1.00  0.00     0.114 C 
BRANCH  24  25
ATOM     25  O   UNL     1      -3.837  -0.329   4.181  1.00  0.00    -0.393 OA
ATOM     26  H   UNL     1      -4.794  -0.522   4.345  1.00  0.00     0.210 HD
ENDBRANCH  24  25
ENDBRANCH   4   6
ENDBRANCH   1   4
BRANCH   1  27
ATOM     27  C   UNL     1      -3.022   7.718  -0.663  1.00  0.00     0.276 C 
BRANCH  27  28
ATOM     28  C   UNL     1      -3.287   7.638  -2.168  1.00  0.00     0.145 C 
BRANCH  28  29
ATOM     29  N   UNL     1      -4.748   7.623  -2.394  1.00  0.00    -0.304 NA
ATOM     30  C   UNL     1      -5.037   7.762  -3.837  1.00  0.00     0.105 C 
ATOM     31  C   UNL     1      -5.325   6.362  -1.882  1.00  0.00     0.105 C 
ENDBRANCH  28  29
ENDBRANCH  27  28
ENDBRANCH   1  27
TORSDOF 6
