REMARK SMILES CCOC(=O)c1[nH]c(C)c(C(=O)NNC(=O)c2cc(-c3ccccc3)nn2-c2ccccc2)c1C
REMARK SMILES IDX 6 1 34 2 10 3 8 4 7 5 9 6 35 7 4 9 5 10 3 11 2 12 1 13 11 14
REMARK SMILES IDX 12 15 13 16 14 18 15 19 16 21 17 22 27 23 18 24 26 25 19 26
REMARK SMILES IDX 28 27 33 28 29 29 32 30 30 31 31 32 20 33 25 34 21 35 24 36
REMARK SMILES IDX 22 37 23 38
REMARK H PARENT 7 8 13 17 14 20
REMARK Flexibility Score: inf
ROOT
ATOM      1  C   UNL     1      -0.806   1.624  -3.605  1.00  0.00     0.128 A 
ATOM      2  C   UNL     1      -0.404   1.363  -4.882  1.00  0.00    -0.006 A 
ATOM      3  C   UNL     1      -1.338   1.980  -5.744  1.00  0.00     0.065 A 
ATOM      4  C   UNL     1      -2.276   2.606  -4.944  1.00  0.00     0.025 A 
ATOM      5  N   UNL     1      -1.952   2.388  -3.660  1.00  0.00    -0.352 N 
ATOM      6  C   UNL     1      -3.462   3.397  -5.432  1.00  0.00     0.065 C 
ATOM      7  C   UNL     1       0.806   0.565  -5.296  1.00  0.00     0.048 C 
ATOM      8  H   UNL     1      -2.476   2.737  -2.845  1.00  0.00     0.166 HD
ENDROOT
BRANCH   1   9
ATOM      9  C   UNL     1      -0.132   1.174  -2.383  1.00  0.00     0.355 C 
ATOM     10  O   UNL     1       0.878   0.501  -2.458  1.00  0.00    -0.244 OA
BRANCH   9  11
ATOM     11  O   UNL     1      -0.632   1.507  -1.175  1.00  0.00    -0.461 OA
BRANCH  11  12
ATOM     12  C   UNL     1       0.088   1.027  -0.009  1.00  0.00     0.230 C 
ATOM     13  C   UNL     1      -0.624   1.501   1.260  1.00  0.00     0.049 C 
ENDBRANCH  11  12
ENDBRANCH   9  11
ENDBRANCH   1   9
BRANCH   3  14
ATOM     14  C   UNL     1      -1.314   1.964  -7.217  1.00  0.00     0.271 C 
ATOM     15  O   UNL     1      -0.719   2.834  -7.825  1.00  0.00    -0.267 OA
ATOM     16  N   UNL     1      -1.950   0.986  -7.891  1.00  0.00    -0.263 N 
ATOM     17  H   UNL     1      -2.454   0.249  -7.377  1.00  0.00     0.191 HD
BRANCH  16  18
ATOM     18  N   UNL     1      -1.927   0.971  -9.292  1.00  0.00    -0.262 N 
ATOM     19  C   UNL     1      -2.564  -0.007  -9.966  1.00  0.00     0.288 C 
ATOM     20  H   UNL     1      -1.424   1.707  -9.807  1.00  0.00     0.191 HD
ATOM     21  O   UNL     1      -3.081  -0.926  -9.360  1.00  0.00    -0.266 OA
BRANCH  19  22
ATOM     22  C   UNL     1      -2.634   0.037 -11.435  1.00  0.00     0.134 A 
ATOM     23  N   UNL     1      -3.332  -0.815 -12.248  1.00  0.00    -0.227 N 
ATOM     24  C   UNL     1      -2.003   0.943 -12.267  1.00  0.00     0.065 A 
ATOM     25  N   UNL     1      -3.167  -0.478 -13.477  1.00  0.00    -0.167 NA
ATOM     26  C   UNL     1      -2.377   0.571 -13.572  1.00  0.00     0.094 A 
BRANCH  23  27
ATOM     27  C   UNL     1      -4.111  -1.891 -11.807  1.00  0.00     0.065 A 
ATOM     28  C   UNL     1      -4.990  -1.724 -10.745  1.00  0.00     0.028 A 
ATOM     29  C   UNL     1      -4.010  -3.127 -12.435  1.00  0.00     0.028 A 
ATOM     30  C   UNL     1      -5.757  -2.788 -10.313  1.00  0.00     0.002 A 
ATOM     31  C   UNL     1      -4.776  -4.188 -11.993  1.00  0.00     0.002 A 
ATOM     32  C   UNL     1      -5.651  -4.018 -10.936  1.00  0.00     0.000 A 
ENDBRANCH  23  27
BRANCH  26  33
ATOM     33  C   UNL     1      -1.956   1.241 -14.828  1.00  0.00     0.002 A 
ATOM     34  C   UNL     1      -2.404   0.764 -16.058  1.00  0.00     0.010 A 
ATOM     35  C   UNL     1      -1.117   2.352 -14.780  1.00  0.00     0.010 A 
ATOM     36  C   UNL     1      -2.010   1.391 -17.223  1.00  0.00     0.001 A 
ATOM     37  C   UNL     1      -0.725   2.968 -15.952  1.00  0.00     0.001 A 
ATOM     38  C   UNL     1      -1.173   2.491 -17.170  1.00  0.00     0.000 A 
ENDBRANCH  26  33
ENDBRANCH  19  22
ENDBRANCH  16  18
ENDBRANCH   3  14
TORSDOF 8
