REMARK SMILES C[C@H](NC(=O)NC(=O)[C@@H](C)Sc1cc(C(=O)NC2CC2)c2ccccc2n1)c1ccccc1
REMARK SMILES IDX 9 1 10 2 7 3 3 4 4 5 5 7 6 8 8 10 2 11 1 12 28 13 33 14
REMARK SMILES IDX 29 15 32 16 30 17 31 18 11 19 12 20 27 21 13 22 26 23 14 24
REMARK SMILES IDX 21 25 25 26 22 27 24 28 23 29 15 30 16 31 17 32 18 34 20 35
REMARK SMILES IDX 19 36
REMARK H PARENT 3 6 6 9 17 33
REMARK Flexibility Score: inf
ROOT
ATOM      1  C   UNL     1      -3.936   2.195   0.008  1.00  0.00     0.139 C 
ATOM      2  C   UNL     1      -3.821   2.960   1.328  1.00  0.00     0.030 C 
ENDROOT
BRANCH   1   3
ATOM      3  C   UNL     1      -5.328   1.632  -0.126  1.00  0.00     0.241 C 
ATOM      4  N   UNL     1      -8.552   2.654  -1.256  1.00  0.00    -0.331 N 
ATOM      5  C   UNL     1      -7.562   1.891  -0.751  1.00  0.00     0.321 C 
ATOM      6  H   UNL     1      -8.357   3.622  -1.550  1.00  0.00     0.166 HD
ATOM      7  O   UNL     1      -7.791   0.749  -0.404  1.00  0.00    -0.248 OA
ATOM      8  N   UNL     1      -6.317   2.395  -0.631  1.00  0.00    -0.277 N 
ATOM      9  H   UNL     1      -6.123   3.362  -0.925  1.00  0.00     0.174 HD
ATOM     10  O   UNL     1      -5.556   0.493   0.220  1.00  0.00    -0.273 OA
BRANCH   4  11
ATOM     11  C   UNL     1      -9.904   2.106  -1.386  1.00  0.00     0.111 C 
ATOM     12  C   UNL     1     -10.652   2.272  -0.061  1.00  0.00     0.036 C 
BRANCH  11  13
ATOM     13  C   UNL     1     -10.642   2.844  -2.474  1.00  0.00    -0.026 A 
ATOM     14  C   UNL     1     -11.464   2.151  -3.344  1.00  0.00     0.006 A 
ATOM     15  C   UNL     1     -10.501   4.213  -2.599  1.00  0.00     0.006 A 
ATOM     16  C   UNL     1     -12.140   2.828  -4.342  1.00  0.00     0.000 A 
ATOM     17  C   UNL     1     -11.174   4.889  -3.600  1.00  0.00     0.000 A 
ATOM     18  C   UNL     1     -11.995   4.197  -4.470  1.00  0.00     0.000 A 
ENDBRANCH  11  13
ENDBRANCH   4  11
ENDBRANCH   1   3
BRANCH   1  19
ATOM     19  S   UNL     1      -2.733   0.843  -0.013  1.00  0.00    -0.093 SA
BRANCH  19  20
ATOM     20  C   UNL     1      -1.233   1.767   0.004  1.00  0.00     0.098 A 
ATOM     21  N   UNL     1      -1.298   3.080   0.032  1.00  0.00    -0.241 NA
ATOM     22  C   UNL     1      -0.013   1.076  -0.006  1.00  0.00     0.050 A 
ATOM     23  C   UNL     1      -0.205   3.848   0.039  1.00  0.00     0.072 A 
ATOM     24  C   UNL     1       1.175   1.791   0.001  1.00  0.00     0.051 A 
ATOM     25  C   UNL     1       1.080   3.252   0.025  1.00  0.00     0.013 A 
ATOM     26  C   UNL     1      -0.303   5.251   0.062  1.00  0.00     0.029 A 
ATOM     27  C   UNL     1       2.223   4.058   0.033  1.00  0.00     0.011 A 
ATOM     28  C   UNL     1       0.828   6.007   0.069  1.00  0.00     0.002 A 
ATOM     29  C   UNL     1       2.089   5.415   0.055  1.00  0.00     0.001 A 
BRANCH  24  30
ATOM     30  C   UNL     1       2.486   1.106  -0.015  1.00  0.00     0.252 C 
ATOM     31  O   UNL     1       3.509   1.754  -0.113  1.00  0.00    -0.269 OA
ATOM     32  N   UNL     1       2.545  -0.237   0.079  1.00  0.00    -0.349 N 
ATOM     33  H   UNL     1       1.677  -0.787   0.162  1.00  0.00     0.164 HD
BRANCH  32  34
ATOM     34  C   UNL     1       3.843  -0.916   0.063  1.00  0.00     0.082 C 
ATOM     35  C   UNL     1       3.930  -2.289   0.733  1.00  0.00     0.027 C 
ATOM     36  C   UNL     1       3.971  -2.177  -0.794  1.00  0.00     0.027 C 
ENDBRANCH  32  34
ENDBRANCH  24  30
ENDBRANCH  19  20
ENDBRANCH   1  19
TORSDOF 7
