REMARK SMILES CC(C)[C@@H](NS(=O)(=O)c1ccc2ccccc2c1)C(=O)Nc1ccc(C[NH+]2CCCC2)cc1
REMARK SMILES IDX 19 1 20 2 21 3 4 5 2 6 1 7 3 8 5 9 6 11 7 12 8 13 9 14 18 15
REMARK SMILES IDX 10 16 17 17 11 18 12 19 16 20 13 21 15 22 14 23 22 24 33 25
REMARK SMILES IDX 23 26 32 27 24 28 25 29 26 30 27 31 31 32 28 33 30 35 29 36
REMARK H PARENT 21 4 5 10 27 34
REMARK Flexibility Score: inf
ROOT
ATOM      1  C   UNL     1      -1.487   3.359   0.020  1.00  0.00     0.242 C 
ATOM      2  O   UNL     1      -0.390   3.871  -0.050  1.00  0.00    -0.273 OA
ATOM      3  N   UNL     1      -1.625   2.032  -0.171  1.00  0.00    -0.325 N 
ATOM      4  H   UNL     1      -2.565   1.610  -0.189  1.00  0.00     0.169 HD
ENDROOT
BRANCH   1   5
ATOM      5  C   UNL     1      -2.696   4.207   0.322  1.00  0.00     0.162 C 
BRANCH   5   6
ATOM      6  C   UNL     1      -3.241   3.845   1.705  1.00  0.00     0.010 C 
ATOM      7  C   UNL     1      -2.171   4.121   2.763  1.00  0.00     0.009 C 
ATOM      8  C   UNL     1      -4.482   4.690   2.001  1.00  0.00     0.009 C 
ENDBRANCH   5   6
BRANCH   5   9
ATOM      9  N   UNL     1      -2.317   5.622   0.302  1.00  0.00    -0.198 NA
ATOM     10  H   UNL     1      -1.885   6.052   1.133  1.00  0.00     0.142 HD
BRANCH   9  11
ATOM     11  S   UNL     1      -2.581   6.531  -1.057  1.00  0.00     0.241 S 
ATOM     12  O   UNL     1      -2.190   7.860  -0.739  1.00  0.00    -0.207 OA
ATOM     13  O   UNL     1      -2.017   5.811  -2.144  1.00  0.00    -0.207 OA
BRANCH  11  14
ATOM     14  C   UNL     1      -4.322   6.570  -1.327  1.00  0.00     0.083 A 
ATOM     15  C   UNL     1      -5.053   7.611  -0.843  1.00  0.00     0.030 A 
ATOM     16  C   UNL     1      -4.929   5.536  -2.039  1.00  0.00     0.022 A 
ATOM     17  C   UNL     1      -6.441   7.645  -1.057  1.00  0.00    -0.017 A 
ATOM     18  C   UNL     1      -6.272   5.533  -2.260  1.00  0.00     0.010 A 
ATOM     19  C   UNL     1      -7.059   6.591  -1.776  1.00  0.00    -0.018 A 
ATOM     20  C   UNL     1      -7.229   8.703  -0.573  1.00  0.00     0.009 A 
ATOM     21  C   UNL     1      -8.448   6.625  -1.991  1.00  0.00     0.009 A 
ATOM     22  C   UNL     1      -8.571   8.703  -0.800  1.00  0.00     0.001 A 
ATOM     23  C   UNL     1      -9.178   7.667  -1.507  1.00  0.00     0.001 A 
ENDBRANCH  11  14
ENDBRANCH   9  11
ENDBRANCH   5   9
ENDBRANCH   1   5
BRANCH   3  24
ATOM     24  C   UNL     1      -0.493   1.229  -0.344  1.00  0.00     0.041 A 
ATOM     25  C   UNL     1      -0.473  -0.064   0.165  1.00  0.00     0.026 A 
ATOM     26  C   UNL     1       0.610   1.719  -1.030  1.00  0.00     0.026 A 
ATOM     27  C   UNL     1       0.644  -0.856  -0.013  1.00  0.00     0.012 A 
ATOM     28  C   UNL     1       1.724   0.921  -1.205  1.00  0.00     0.012 A 
ATOM     29  C   UNL     1       1.741  -0.365  -0.697  1.00  0.00     0.006 A 
BRANCH  29  30
ATOM     30  C   UNL     1       2.958  -1.232  -0.888  1.00  0.00     0.299 C 
BRANCH  30  31
ATOM     31  N   UNL     1       2.827  -1.991  -2.140  1.00  0.00    -0.331 N 
ATOM     32  C   UNL     1       4.095  -2.669  -2.484  1.00  0.00     0.262 C 
ATOM     33  C   UNL     1       2.527  -1.088  -3.280  1.00  0.00     0.262 C 
ATOM     34  H   UNL     1       2.067  -2.669  -1.988  1.00  0.00     0.348 HD
ATOM     35  C   UNL     1       4.204  -2.670  -4.020  1.00  0.00     0.067 C 
ATOM     36  C   UNL     1       2.942  -1.927  -4.515  1.00  0.00     0.067 C 
ENDBRANCH  30  31
ENDBRANCH  29  30
ENDBRANCH   3  24
TORSDOF 8
