REMARK SMILES CC(C)[C@H]1CC[C@H](C)C[C@@H]1OC(=O)c1ccccc1NC(=O)COC(=O)[C@@]12C[C@@H]3C[C@@H](C[C@@](O)(C3)C1)C2
REMARK SMILES IDX 20 1 21 2 22 3 19 5 14 6 15 7 18 8 16 9 17 10 12 11 13 12
REMARK SMILES IDX 11 13 10 14 8 15 7 16 9 17 6 18 5 19 4 20 2 21 1 22 3 23
REMARK SMILES IDX 23 24 24 25 25 26 26 27 27 28 37 29 36 30 28 31 31 32 33 33
REMARK SMILES IDX 29 34 30 35 32 36 35 37 34 38
REMARK H PARENT 20 4 34 39
REMARK Flexibility Score: inf
ROOT
ATOM      1  N   UNL     1       1.203   1.841  -0.007  1.00  0.00    -0.322 N 
ATOM      2  C   UNL     1       0.134   1.276   0.589  1.00  0.00     0.262 C 
ATOM      3  O   UNL     1       0.240   0.194   1.125  1.00  0.00    -0.271 OA
ATOM      4  H   UNL     1       1.098   2.729  -0.518  1.00  0.00     0.170 HD
ENDROOT
BRANCH   1   5
ATOM      5  C   UNL     1       2.449   1.224   0.068  1.00  0.00     0.055 A 
ATOM      6  C   UNL     1       3.615   1.999   0.165  1.00  0.00     0.083 A 
ATOM      7  C   UNL     1       4.859   1.367   0.240  1.00  0.00     0.018 A 
ATOM      8  C   UNL     1       2.543  -0.161   0.054  1.00  0.00     0.027 A 
ATOM      9  C   UNL     1       4.933  -0.009   0.218  1.00  0.00     0.001 A 
ATOM     10  C   UNL     1       3.780  -0.771   0.124  1.00  0.00     0.002 A 
BRANCH   6  11
ATOM     11  C   UNL     1       3.527   3.470   0.187  1.00  0.00     0.340 C 
ATOM     12  O   UNL     1       2.442   4.014   0.224  1.00  0.00    -0.246 OA
BRANCH  11  13
ATOM     13  O   UNL     1       4.652   4.212   0.167  1.00  0.00    -0.458 OA
BRANCH  13  14
ATOM     14  C   UNL     1       4.491   5.655   0.191  1.00  0.00     0.180 C 
ATOM     15  C   UNL     1       4.286   8.149   3.117  1.00  0.00     0.008 C 
ATOM     16  C   UNL     1       4.303   7.662   1.667  1.00  0.00    -0.011 C 
ATOM     17  C   UNL     1       4.473   6.142   1.641  1.00  0.00     0.049 C 
ATOM     18  C   UNL     1       5.468   8.318   0.922  1.00  0.00     0.004 C 
ATOM     19  C   UNL     1       5.485   7.831  -0.528  1.00  0.00     0.008 C 
ATOM     20  C   UNL     1       5.655   6.311  -0.553  1.00  0.00     0.033 C 
BRANCH  20  21
ATOM     21  C   UNL     1       5.673   5.824  -2.004  1.00  0.00    -0.011 C 
ATOM     22  C   UNL     1       4.364   6.219  -2.690  1.00  0.00     0.008 C 
ATOM     23  C   UNL     1       6.849   6.464  -2.743  1.00  0.00     0.008 C 
ENDBRANCH  20  21
ENDBRANCH  13  14
ENDBRANCH  11  13
ENDBRANCH   6  11
ENDBRANCH   1   5
BRANCH   2  24
ATOM     24  C   UNL     1      -1.195   1.987   0.583  1.00  0.00     0.333 C 
BRANCH  24  25
ATOM     25  O   UNL     1      -2.180   1.177   1.277  1.00  0.00    -0.455 OA
BRANCH  25  26
ATOM     26  C   UNL     1      -3.425   1.671   1.361  1.00  0.00     0.312 C 
ATOM     27  O   UNL     1      -3.684   2.745   0.871  1.00  0.00    -0.252 OA
BRANCH  26  28
ATOM     28  C   UNL     1      -4.501   0.887   2.067  1.00  0.00     0.071 C 
ATOM     29  C   UNL     1      -4.686  -0.464   1.374  1.00  0.00     0.022 C 
ATOM     30  C   UNL     1      -5.816   1.668   2.020  1.00  0.00     0.054 C 
ATOM     31  C   UNL     1      -4.094   0.661   3.525  1.00  0.00     0.022 C 
ATOM     32  C   UNL     1      -5.778  -1.261   2.091  1.00  0.00    -0.007 C 
ATOM     33  C   UNL     1      -6.908   0.872   2.737  1.00  0.00     0.066 C 
ATOM     34  C   UNL     1      -5.186  -0.136   4.241  1.00  0.00    -0.007 C 
ATOM     35  C   UNL     1      -5.371  -1.487   3.548  1.00  0.00     0.007 C 
ATOM     36  C   UNL     1      -7.093  -0.480   2.043  1.00  0.00     0.039 C 
ATOM     37  C   UNL     1      -6.501   0.645   4.194  1.00  0.00     0.039 C 
BRANCH  33  38
ATOM     38  O   UNL     1      -8.136   1.601   2.693  1.00  0.00    -0.390 OA
ATOM     39  H   UNL     1      -8.844   1.087   3.157  1.00  0.00     0.211 HD
ENDBRANCH  33  38
ENDBRANCH  26  28
ENDBRANCH  25  26
ENDBRANCH  24  25
ENDBRANCH   2  24
TORSDOF 10
