REMARK SMILES Cc1ccc(-c2c(C(=O)N/N=C/c3c(C)nn(-c4ccccc4)c3Cl)nnn2-c2nonc2N)cc1
REMARK SMILES IDX 8 1 9 2 10 3 7 5 6 6 28 7 27 8 26 9 5 10 1 11 2 12 36 13
REMARK SMILES IDX 3 14 35 15 4 16 29 17 30 18 33 19 31 20 32 21 34 22 11 25
REMARK SMILES IDX 12 26 13 27 24 28 14 29 17 30 25 31 16 32 15 33 18 34 23 35
REMARK SMILES IDX 19 36 22 37 20 38 21 39
REMARK H PARENT 10 4 34 23 34 24
REMARK Flexibility Score: inf
ROOT
ATOM      1  C   UNL     1       1.148   7.351   0.070  1.00  0.00     0.294 C 
ATOM      2  O   UNL     1       0.273   8.196   0.078  1.00  0.00    -0.265 OA
ATOM      3  N   UNL     1       2.443   7.722   0.072  1.00  0.00    -0.241 N 
ATOM      4  H   UNL     1       3.184   7.006   0.064  1.00  0.00     0.194 HD
ENDROOT
BRANCH   1   5
ATOM      5  C   UNL     1       0.791   5.923   0.056  1.00  0.00     0.180 A 
ATOM      6  C   UNL     1      -0.498   5.403   0.052  1.00  0.00     0.110 A 
ATOM      7  N   UNL     1      -0.361   4.044   0.039  1.00  0.00    -0.187 N 
ATOM      8  N   UNL     1       1.015   3.779   0.040  1.00  0.00    -0.059 NA
ATOM      9  N   UNL     1       1.655   4.895   0.045  1.00  0.00    -0.124 NA
BRANCH   6  10
ATOM     10  C   UNL     1      -1.762   6.168   0.062  1.00  0.00     0.003 A 
ATOM     11  C   UNL     1      -5.421   8.381   0.088  1.00  0.00     0.044 C 
ATOM     12  C   UNL     1      -4.132   7.601   0.079  1.00  0.00    -0.051 A 
ATOM     13  C   UNL     1      -3.983   6.527  -0.781  1.00  0.00     0.004 A 
ATOM     14  C   UNL     1      -3.102   7.962   0.930  1.00  0.00     0.004 A 
ATOM     15  C   UNL     1      -2.804   5.812  -0.798  1.00  0.00     0.011 A 
ATOM     16  C   UNL     1      -1.919   7.253   0.927  1.00  0.00     0.011 A 
ENDBRANCH   6  10
BRANCH   7  17
ATOM     17  C   UNL     1      -1.393   3.101   0.031  1.00  0.00     0.243 A 
ATOM     18  N   UNL     1      -2.669   3.366   0.033  1.00  0.00    -0.027 NA
ATOM     19  C   UNL     1      -1.224   1.645   0.017  1.00  0.00     0.215 A 
ATOM     20  O   UNL     1      -3.369   2.134   0.030  1.00  0.00    -0.240 OA
ATOM     21  N   UNL     1      -2.407   1.094   0.020  1.00  0.00    -0.030 NA
BRANCH  19  22
ATOM     22  N   UNL     1      -0.011   0.966   0.007  1.00  0.00    -0.378 N 
ATOM     23  H   UNL     1       0.831   1.558   0.011  1.00  0.00     0.158 HD
ATOM     24  H   UNL     1       0.059  -0.062  -0.003  1.00  0.00     0.158 HD
ENDBRANCH  19  22
ENDBRANCH   7  17
ENDBRANCH   1   5
BRANCH   3  25
ATOM     25  N   UNL     1       2.783   9.081   0.085  1.00  0.00    -0.180 NA
ATOM     26  C   UNL     1       4.030   9.439   0.087  1.00  0.00     0.146 C 
BRANCH  26  27
ATOM     27  C   UNL     1       4.387  10.870   0.100  1.00  0.00     0.055 A 
ATOM     28  C   UNL     1       3.507  11.933   0.112  1.00  0.00     0.142 A 
ATOM     29  C   UNL     1       5.693  11.407   0.110  1.00  0.00     0.070 A 
ATOM     30  N   UNL     1       4.244  13.065   0.121  1.00  0.00    -0.221 N 
ATOM     31  Cl  UNL     1       1.774  11.834   0.113  1.00  0.00    -0.061 Cl
ATOM     32  N   UNL     1       5.598  12.709   0.116  1.00  0.00    -0.171 NA
ATOM     33  C   UNL     1       6.975  10.615   0.108  1.00  0.00     0.069 C 
BRANCH  30  34
ATOM     34  C   UNL     1       3.740  14.372   0.135  1.00  0.00     0.066 A 
ATOM     35  C   UNL     1       4.409  15.369   0.833  1.00  0.00     0.028 A 
ATOM     36  C   UNL     1       2.573  14.675  -0.554  1.00  0.00     0.028 A 
ATOM     37  C   UNL     1       3.909  16.657   0.844  1.00  0.00     0.002 A 
ATOM     38  C   UNL     1       2.075  15.963  -0.534  1.00  0.00     0.002 A 
ATOM     39  C   UNL     1       2.744  16.954   0.162  1.00  0.00     0.000 A 
ENDBRANCH  30  34
ENDBRANCH  26  27
ENDBRANCH   3  25
TORSDOF 7
