REMARK SMILES O=C(c1ccc(SCc2cn3ccccc3n2)cc1)N1CCC[C@H]1c1nc2ccccc2s1
REMARK SMILES IDX 3 1 4 2 5 3 6 4 18 5 19 6 2 7 1 8 20 9 24 10 23 11 21 12
REMARK SMILES IDX 22 13 25 14 29 15 28 16 30 17 27 18 31 19 32 20 26 21 33 22
REMARK SMILES IDX 7 23 8 24 9 25 17 26 10 27 16 28 11 29 15 30 12 31 14 32
REMARK SMILES IDX 13 33
REMARK H PARENT
REMARK Flexibility Score: inf
ROOT
ATOM      1  C   UNL     1       5.236  -4.206  -3.161  1.00  0.00     0.040 A 
ATOM      2  C   UNL     1       6.407  -4.684  -2.564  1.00  0.00     0.015 A 
ATOM      3  C   UNL     1       7.536  -4.863  -3.321  1.00  0.00     0.016 A 
ATOM      4  C   UNL     1       7.521  -4.560  -4.680  1.00  0.00     0.008 A 
ATOM      5  C   UNL     1       6.358  -4.078  -5.276  1.00  0.00     0.016 A 
ATOM      6  C   UNL     1       5.224  -3.902  -4.526  1.00  0.00     0.015 A 
ENDROOT
BRANCH   1   7
ATOM      7  C   UNL     1       4.018  -4.017  -2.352  1.00  0.00     0.254 C 
ATOM      8  O   UNL     1       3.172  -3.218  -2.704  1.00  0.00    -0.269 OA
BRANCH   7   9
ATOM      9  N   UNL     1       3.843  -4.731  -1.222  1.00  0.00    -0.329 N 
ATOM     10  C   UNL     1       2.742  -4.559  -0.262  1.00  0.00     0.145 C 
ATOM     11  C   UNL     1       2.939  -5.607   0.853  1.00  0.00     0.034 C 
ATOM     12  C   UNL     1       4.723  -5.812  -0.743  1.00  0.00     0.120 C 
ATOM     13  C   UNL     1       3.822  -6.683   0.167  1.00  0.00     0.024 C 
BRANCH  10  14
ATOM     14  C   UNL     1       2.785  -3.172   0.325  1.00  0.00     0.116 A 
ATOM     15  C   UNL     1       1.378   1.065   1.882  1.00  0.00     0.002 A 
ATOM     16  C   UNL     1       1.009  -0.122   1.329  1.00  0.00     0.030 A 
ATOM     17  C   UNL     1       2.701   1.341   2.200  1.00  0.00     0.002 A 
ATOM     18  C   UNL     1       1.971  -1.121   1.058  1.00  0.00     0.082 A 
ATOM     19  C   UNL     1       3.672   0.390   1.950  1.00  0.00     0.021 A 
ATOM     20  C   UNL     1       3.309  -0.812   1.391  1.00  0.00     0.055 A 
ATOM     21  N   UNL     1       1.796  -2.345   0.519  1.00  0.00    -0.239 NA
ATOM     22  S   UNL     1       4.164  -2.290   0.904  1.00  0.00    -0.117 S 
ENDBRANCH  10  14
ENDBRANCH   7   9
ENDBRANCH   1   7
BRANCH   4  23
ATOM     23  S   UNL     1       8.977  -4.786  -5.647  1.00  0.00    -0.120 SA
BRANCH  23  24
ATOM     24  C   UNL     1      10.198  -5.414  -4.463  1.00  0.00     0.132 C 
BRANCH  24  25
ATOM     25  C   UNL     1      11.507  -5.653  -5.170  1.00  0.00     0.070 A 
ATOM     26  N   UNL     1      11.880  -6.794  -5.753  1.00  0.00    -0.233 NA
ATOM     27  C   UNL     1      12.502  -4.750  -5.314  1.00  0.00     0.117 A 
ATOM     28  C   UNL     1      13.088  -6.641  -6.277  1.00  0.00     0.137 A 
ATOM     29  N   UNL     1      13.507  -5.362  -6.012  1.00  0.00    -0.307 N 
ATOM     30  C   UNL     1      13.931  -7.515  -6.993  1.00  0.00     0.048 A 
ATOM     31  C   UNL     1      14.730  -4.933  -6.437  1.00  0.00     0.093 A 
ATOM     32  C   UNL     1      15.148  -7.074  -7.411  1.00  0.00     0.005 A 
ATOM     33  C   UNL     1      15.548  -5.759  -7.124  1.00  0.00     0.018 A 
ENDBRANCH  24  25
ENDBRANCH  23  24
ENDBRANCH   4  23
TORSDOF 6
