REMARK SMILES CC[C@@]1(O)C[C@H](O)c2cc3c(c(O)c2[C@H]1O)C(=O)c1c(O)ccc(O)c1C3=O
REMARK SMILES IDX 3 1 5 2 6 3 8 4 9 5 10 6 11 7 12 8 14 9 15 10 17 11 18 12
REMARK SMILES IDX 19 13 20 14 22 15 23 16 24 17 26 18 27 19 28 20 2 21 1 22
REMARK SMILES IDX 4 23 16 25 7 27 13 29 21 31 25 33
REMARK H PARENT 4 24 16 26 7 28 13 30 21 32 25 34
REMARK Flexibility Score: inf
ROOT
ATOM      1  C   UNL     1       0.002  -0.004   0.002  1.00  0.00     0.097 C 
ATOM      2  C   UNL     1       0.910  -0.467  -1.143  1.00  0.00     0.075 C 
ATOM      3  C   UNL     1       2.354  -0.128  -0.779  1.00  0.00     0.148 C 
ATOM      4  C   UNL     1       2.473   1.316  -0.366  1.00  0.00    -0.009 A 
ATOM      5  C   UNL     1       3.748   1.878  -0.363  1.00  0.00     0.020 A 
ATOM      6  C   UNL     1       3.937   3.199   0.012  1.00  0.00     0.038 A 
ATOM      7  C   UNL     1       2.827   3.979   0.391  1.00  0.00     0.076 A 
ATOM      8  C   UNL     1       1.556   3.408   0.381  1.00  0.00     0.133 A 
ATOM      9  C   UNL     1       1.385   2.073   0.000  1.00  0.00     0.032 A 
ATOM     10  C   UNL     1      -0.019   1.523   0.010  1.00  0.00     0.180 C 
ATOM     11  C   UNL     1       3.023   5.385   0.792  1.00  0.00     0.202 C 
ATOM     12  O   UNL     1       2.073   6.139   0.878  1.00  0.00    -0.288 OA
ATOM     13  C   UNL     1       4.386   5.865   1.089  1.00  0.00     0.079 A 
ATOM     14  C   UNL     1       4.585   7.082   1.741  1.00  0.00     0.127 A 
ATOM     15  C   UNL     1       5.880   7.519   2.015  1.00  0.00     0.051 A 
ATOM     16  C   UNL     1       6.967   6.758   1.645  1.00  0.00     0.051 A 
ATOM     17  C   UNL     1       6.789   5.540   0.992  1.00  0.00     0.127 A 
ATOM     18  C   UNL     1       5.499   5.086   0.710  1.00  0.00     0.079 A 
ATOM     19  C   UNL     1       5.289   3.799   0.022  1.00  0.00     0.198 C 
ATOM     20  O   UNL     1       6.216   3.239  -0.531  1.00  0.00    -0.288 OA
ENDROOT
BRANCH   1  21
ATOM     21  C   UNL     1      -1.415  -0.538  -0.216  1.00  0.00     0.035 C 
ATOM     22  C   UNL     1      -1.389  -2.068  -0.223  1.00  0.00     0.007 C 
ENDBRANCH   1  21
BRANCH   1  23
ATOM     23  O   UNL     1       0.513  -0.486   1.247  1.00  0.00    -0.387 OA
ATOM     24  H   UNL     1       0.532  -1.475   1.234  1.00  0.00     0.211 HD
ENDBRANCH   1  23
BRANCH  10  25
ATOM     25  O   UNL     1      -0.717   1.991  -1.145  1.00  0.00    -0.385 OA
ATOM     26  H   UNL     1      -1.646   1.649  -1.134  1.00  0.00     0.211 HD
ENDBRANCH  10  25
BRANCH   3  27
ATOM     27  O   UNL     1       2.775  -0.963   0.302  1.00  0.00    -0.388 OA
ATOM     28  H   UNL     1       2.719  -1.913   0.030  1.00  0.00     0.211 HD
ENDBRANCH   3  27
BRANCH   8  29
ATOM     29  O   UNL     1       0.480   4.151   0.741  1.00  0.00    -0.507 OA
ATOM     30  H   UNL     1       0.496   4.935   0.138  1.00  0.00     0.293 HD
ENDBRANCH   8  29
BRANCH  14  31
ATOM     31  O   UNL     1       3.520   7.839   2.108  1.00  0.00    -0.507 OA
ATOM     32  H   UNL     1       2.969   7.244   2.676  1.00  0.00     0.293 HD
ENDBRANCH  14  31
BRANCH  17  33
ATOM     33  O   UNL     1       7.865   4.798   0.631  1.00  0.00    -0.507 OA
ATOM     34  H   UNL     1       8.368   4.654   1.472  1.00  0.00     0.293 HD
ENDBRANCH  17  33
TORSDOF 7
