REMARK SMILES Cc1ccc(C(=O)N[C@@H](C(=O)NNC(=O)Cc2csc(-c3ccc(F)cc3)n2)C(C)C)cc1
REMARK SMILES IDX 10 1 11 2 12 3 9 5 8 6 6 7 7 8 5 10 1 11 2 12 33 13 3 14
REMARK SMILES IDX 32 15 4 16 29 17 30 18 31 19 13 20 14 21 15 23 16 24 17 25
REMARK SMILES IDX 28 26 18 27 20 28 19 29 21 30 27 31 22 32 26 33 23 34 24 35
REMARK SMILES IDX 25 36
REMARK H PARENT 12 4 8 9 13 22
REMARK Flexibility Score: inf
ROOT
ATOM      1  C   UNL     1       0.200   1.441  -0.219  1.00  0.00     0.261 C 
ATOM      2  O   UNL     1       1.171   2.043   0.189  1.00  0.00    -0.271 OA
ATOM      3  N   UNL     1       0.336   0.188  -0.696  1.00  0.00    -0.266 N 
ATOM      4  H   UNL     1      -0.497  -0.352  -0.970  1.00  0.00     0.191 HD
ENDROOT
BRANCH   1   5
ATOM      5  C   UNL     1      -1.157   2.097  -0.199  1.00  0.00     0.176 C 
BRANCH   5   6
ATOM      6  N   UNL     1      -1.000   3.548  -0.324  1.00  0.00    -0.340 N 
ATOM      7  C   UNL     1      -2.005   4.293  -0.826  1.00  0.00     0.251 C 
ATOM      8  O   UNL     1      -3.041   3.761  -1.174  1.00  0.00    -0.269 OA
ATOM      9  H   UNL     1      -0.122   3.999  -0.029  1.00  0.00     0.164 HD
BRANCH   7  10
ATOM     10  C   UNL     1      -1.846   5.758  -0.953  1.00  0.00     0.039 A 
ATOM     11  C   UNL     1      -1.390   9.994  -1.318  1.00  0.00     0.044 C 
ATOM     12  C   UNL     1      -1.551   8.501  -1.189  1.00  0.00    -0.051 A 
ATOM     13  C   UNL     1      -0.517   7.739  -0.674  1.00  0.00     0.004 A 
ATOM     14  C   UNL     1      -2.731   7.899  -1.587  1.00  0.00     0.004 A 
ATOM     15  C   UNL     1      -0.660   6.372  -0.549  1.00  0.00     0.014 A 
ATOM     16  C   UNL     1      -2.885   6.532  -1.472  1.00  0.00     0.014 A 
ENDBRANCH   7  10
ENDBRANCH   5   6
BRANCH   5  17
ATOM     17  C   UNL     1      -1.860   1.772   1.121  1.00  0.00     0.015 C 
ATOM     18  C   UNL     1      -3.275   2.355   1.101  1.00  0.00     0.010 C 
ATOM     19  C   UNL     1      -1.936   0.254   1.298  1.00  0.00     0.010 C 
ENDBRANCH   5  17
ENDBRANCH   1   5
BRANCH   3  20
ATOM     20  N   UNL     1       1.611  -0.380  -0.820  1.00  0.00    -0.267 N 
ATOM     21  C   UNL     1       1.747  -1.633  -1.297  1.00  0.00     0.244 C 
ATOM     22  H   UNL     1       2.444   0.160  -0.546  1.00  0.00     0.191 HD
ATOM     23  O   UNL     1       0.766  -2.269  -1.619  1.00  0.00    -0.273 OA
BRANCH  21  24
ATOM     24  C   UNL     1       3.118  -2.244  -1.430  1.00  0.00     0.158 C 
BRANCH  24  25
ATOM     25  C   UNL     1       2.994  -3.640  -1.983  1.00  0.00     0.061 A 
ATOM     26  N   UNL     1       2.226  -4.519  -1.383  1.00  0.00    -0.241 NA
ATOM     27  C   UNL     1       3.674  -3.990  -3.107  1.00  0.00     0.091 A 
ATOM     28  C   UNL     1       2.099  -5.754  -1.848  1.00  0.00     0.123 A 
ATOM     29  S   UNL     1       3.165  -5.696  -3.283  1.00  0.00    -0.122 S 
BRANCH  28  30
ATOM     30  C   UNL     1       1.293  -6.877  -1.323  1.00  0.00     0.011 A 
ATOM     31  C   UNL     1       1.303  -8.111  -1.975  1.00  0.00     0.014 A 
ATOM     32  C   UNL     1       0.526  -6.708  -0.170  1.00  0.00     0.014 A 
ATOM     33  C   UNL     1       0.549  -9.155  -1.481  1.00  0.00     0.040 A 
ATOM     34  C   UNL     1      -0.228  -7.758   0.313  1.00  0.00     0.040 A 
ATOM     35  C   UNL     1      -0.216  -8.981  -0.339  1.00  0.00     0.123 A 
ATOM     36  F   UNL     1      -0.952 -10.007   0.142  1.00  0.00    -0.207 F 
ENDBRANCH  28  30
ENDBRANCH  24  25
ENDBRANCH  21  24
ENDBRANCH   3  20
TORSDOF 8
