REMARK SMILES O=C(c1ccc2ccccc2c1)N1C[C@@H]2C[C@H](C1)c1ccc(NCc3ccc(-c4ccccn4)cc3)c(=O)n1C2
REMARK SMILES IDX 23 1 22 3 13 4 18 5 14 6 17 7 15 8 16 9 19 10 40 11 39 12
REMARK SMILES IDX 20 13 37 14 21 15 38 16 2 17 1 18 3 19 8 20 7 21 9 22 6 23
REMARK SMILES IDX 10 24 11 25 5 26 12 27 4 28 24 29 25 30 36 31 26 32 35 33
REMARK SMILES IDX 27 34 28 35 29 36 34 37 30 38 33 39 31 40 32 41
REMARK H PARENT 23 2
REMARK Flexibility Score: inf
ROOT
ATOM      1  N   UNL     1      -2.177   2.944  -5.670  1.00  0.00    -0.377 N 
ATOM      2  H   UNL     1      -2.450   3.858  -6.058  1.00  0.00     0.161 HD
ENDROOT
BRANCH   1   3
ATOM      3  C   UNL     1      -2.780   2.473  -4.497  1.00  0.00     0.101 A 
ATOM      4  N   UNL     1      -3.679   3.128   0.157  1.00  0.00    -0.338 N 
ATOM      5  C   UNL     1      -3.642   1.660   0.255  1.00  0.00     0.129 C 
ATOM      6  C   UNL     1      -4.985   3.798   0.175  1.00  0.00     0.125 C 
ATOM      7  C   UNL     1      -4.530   1.098  -0.862  1.00  0.00     0.056 C 
ATOM      8  C   UNL     1      -5.924   3.152  -0.834  1.00  0.00     0.029 C 
ATOM      9  C   UNL     1      -5.951   1.632  -0.664  1.00  0.00     0.019 C 
ATOM     10  C   UNL     1      -3.977   1.595  -2.177  1.00  0.00     0.026 A 
ATOM     11  C   UNL     1      -5.555   3.506  -2.263  1.00  0.00     0.131 C 
ATOM     12  N   UNL     1      -4.394   2.755  -2.742  1.00  0.00    -0.310 N 
ATOM     13  C   UNL     1      -3.033   0.832  -2.787  1.00  0.00     0.024 A 
ATOM     14  C   UNL     1      -3.760   3.241  -3.838  1.00  0.00     0.274 A 
ATOM     15  C   UNL     1      -2.425   1.260  -3.973  1.00  0.00     0.033 A 
ATOM     16  O   UNL     1      -4.041   4.352  -4.258  1.00  0.00    -0.267 OA
BRANCH   4  17
ATOM     17  C   UNL     1      -2.541   3.840   0.048  1.00  0.00     0.253 C 
ATOM     18  O   UNL     1      -1.474   3.268  -0.065  1.00  0.00    -0.269 OA
BRANCH  17  19
ATOM     19  C   UNL     1      -2.588   5.317   0.065  1.00  0.00     0.040 A 
ATOM     20  C   UNL     1      -1.846  10.215  -0.573  1.00  0.00     0.001 A 
ATOM     21  C   UNL     1      -2.757   9.500   0.143  1.00  0.00     0.009 A 
ATOM     22  C   UNL     1      -0.864   9.575  -1.326  1.00  0.00     0.001 A 
ATOM     23  C   UNL     1      -2.711   8.096   0.125  1.00  0.00    -0.018 A 
ATOM     24  C   UNL     1      -0.788   8.217  -1.369  1.00  0.00     0.009 A 
ATOM     25  C   UNL     1      -1.712   7.445  -0.642  1.00  0.00    -0.018 A 
ATOM     26  C   UNL     1      -3.639   7.330   0.855  1.00  0.00     0.009 A 
ATOM     27  C   UNL     1      -1.661   6.043  -0.663  1.00  0.00     0.022 A 
ATOM     28  C   UNL     1      -3.571   5.975   0.828  1.00  0.00     0.014 A 
ENDBRANCH  17  19
ENDBRANCH   4  17
ENDBRANCH   1   3
BRANCH   1  29
ATOM     29  C   UNL     1      -1.159   2.136  -6.346  1.00  0.00     0.149 C 
BRANCH  29  30
ATOM     30  C   UNL     1      -0.674   2.863  -7.574  1.00  0.00    -0.029 A 
ATOM     31  C   UNL     1       0.402   3.727  -7.483  1.00  0.00     0.006 A 
ATOM     32  C   UNL     1      -1.304   2.660  -8.788  1.00  0.00     0.006 A 
ATOM     33  C   UNL     1       0.850   4.396  -8.604  1.00  0.00     0.011 A 
ATOM     34  C   UNL     1      -0.868   3.327  -9.915  1.00  0.00     0.011 A 
ATOM     35  C   UNL     1       0.216   4.199  -9.829  1.00  0.00     0.000 A 
BRANCH  35  36
ATOM     36  C   UNL     1       0.693   4.914 -11.038  1.00  0.00     0.070 A 
ATOM     37  N   UNL     1       1.726   5.742 -10.947  1.00  0.00    -0.256 NA
ATOM     38  C   UNL     1       0.057   4.707 -12.260  1.00  0.00     0.029 A 
ATOM     39  C   UNL     1       2.180   6.396 -11.997  1.00  0.00     0.111 A 
ATOM     40  C   UNL     1       0.510   5.386 -13.378  1.00  0.00     0.004 A 
ATOM     41  C   UNL     1       1.593   6.242 -13.239  1.00  0.00     0.020 A 
ENDBRANCH  35  36
ENDBRANCH  29  30
ENDBRANCH   1  29
TORSDOF 6
