REMARK SMILES O=C(N[C@@H](Cc1ccccc1)C(=O)Nc1ccc2c(c1)OCO2)OCC1c2ccccc2-c2ccccc21
REMARK SMILES IDX 3 1 2 2 1 3 4 5 5 6 6 7 9 8 10 9 8 10 11 11 7 12 12 13 13 14
REMARK SMILES IDX 14 15 15 17 20 18 16 19 19 20 17 21 18 22 21 23 23 24 22 25
REMARK SMILES IDX 24 26 25 27 26 28 38 29 27 30 33 31 37 32 32 33 28 34 34 35
REMARK SMILES IDX 36 36 31 37 29 38 35 39 30 40
REMARK H PARENT 3 4 14 16
REMARK Flexibility Score: inf
ROOT
ATOM      1  N   UNL     1      -3.848   6.507  -2.142  1.00  0.00    -0.309 N 
ATOM      2  C   UNL     1      -2.500   6.505  -2.154  1.00  0.00     0.407 C 
ATOM      3  O   UNL     1      -1.900   6.997  -3.090  1.00  0.00    -0.225 OA
ATOM      4  H   UNL     1      -4.356   6.090  -1.350  1.00  0.00     0.167 HD
ENDROOT
BRANCH   1   5
ATOM      5  C   UNL     1      -4.589   7.103  -3.257  1.00  0.00     0.179 C 
BRANCH   5   6
ATOM      6  C   UNL     1      -4.747   6.070  -4.374  1.00  0.00     0.070 C 
BRANCH   6   7
ATOM      7  C   UNL     1      -3.391   5.726  -4.936  1.00  0.00    -0.045 A 
ATOM      8  C   UNL     1      -0.904   5.096  -5.966  1.00  0.00     0.000 A 
ATOM      9  C   UNL     1      -1.634   6.136  -6.510  1.00  0.00     0.000 A 
ATOM     10  C   UNL     1      -1.418   4.370  -4.908  1.00  0.00     0.000 A 
ATOM     11  C   UNL     1      -2.880   6.448  -5.998  1.00  0.00     0.004 A 
ATOM     12  C   UNL     1      -2.661   4.686  -4.392  1.00  0.00     0.004 A 
ENDBRANCH   6   7
ENDBRANCH   5   6
BRANCH   5  13
ATOM     13  C   UNL     1      -5.951   7.537  -2.779  1.00  0.00     0.247 C 
ATOM     14  O   UNL     1      -6.270   7.367  -1.621  1.00  0.00    -0.272 OA
ATOM     15  N   UNL     1      -6.813   8.116  -3.638  1.00  0.00    -0.324 N 
ATOM     16  H   UNL     1      -6.517   8.326  -4.602  1.00  0.00     0.170 HD
BRANCH  15  17
ATOM     17  C   UNL     1      -8.113   8.432  -3.219  1.00  0.00     0.045 A 
ATOM     18  C   UNL     1      -8.339   8.853  -1.916  1.00  0.00     0.076 A 
ATOM     19  C   UNL     1      -9.173   8.329  -4.110  1.00  0.00     0.030 A 
ATOM     20  C   UNL     1      -9.623   9.165  -1.503  1.00  0.00     0.167 A 
ATOM     21  C   UNL     1     -10.455   8.636  -3.697  1.00  0.00     0.053 A 
ATOM     22  C   UNL     1     -10.686   9.056  -2.397  1.00  0.00     0.165 A 
ATOM     23  O   UNL     1     -10.107   9.594  -0.301  1.00  0.00    -0.454 OA
ATOM     24  O   UNL     1     -11.836   9.417  -1.754  1.00  0.00    -0.454 OA
ATOM     25  C   UNL     1     -11.410  10.138  -0.582  1.00  0.00     0.468 C 
ENDBRANCH  15  17
ENDBRANCH   5  13
ENDBRANCH   1   5
BRANCH   2  26
ATOM     26  O   UNL     1      -1.818   5.958  -1.130  1.00  0.00    -0.449 OA
BRANCH  26  27
ATOM     27  C   UNL     1      -0.369   5.992  -1.210  1.00  0.00     0.248 C 
BRANCH  27  28
ATOM     28  C   UNL     1       0.226   5.328   0.034  1.00  0.00     0.088 C 
ATOM     29  C   UNL     1       1.729   5.463   0.025  1.00  0.00    -0.029 A 
ATOM     30  C   UNL     1      -0.060   3.847   0.019  1.00  0.00    -0.029 A 
ATOM     31  C   UNL     1       2.265   4.178   0.008  1.00  0.00    -0.014 A 
ATOM     32  C   UNL     1       2.560   6.563   0.032  1.00  0.00     0.005 A 
ATOM     33  C   UNL     1       1.164   3.183   0.005  1.00  0.00    -0.014 A 
ATOM     34  C   UNL     1      -1.239   3.131   0.019  1.00  0.00     0.005 A 
ATOM     35  C   UNL     1       3.651   4.015  -0.002  1.00  0.00     0.009 A 
ATOM     36  C   UNL     1       3.933   6.394   0.021  1.00  0.00     0.000 A 
ATOM     37  C   UNL     1       1.186   1.788  -0.010  1.00  0.00     0.009 A 
ATOM     38  C   UNL     1      -1.210   1.748  -0.001  1.00  0.00     0.000 A 
ATOM     39  C   UNL     1       4.475   5.122   0.004  1.00  0.00     0.001 A 
ATOM     40  C   UNL     1       0.002   1.080  -0.010  1.00  0.00     0.001 A 
ENDBRANCH  27  28
ENDBRANCH  26  27
ENDBRANCH   2  26
TORSDOF 8
