REMARK SMILES Oc1ccc(CCNc2nc(SCCCc3ccc(Cl)cc3)nc(N3CC[NH2+]CC3)n2)cc1
REMARK SMILES IDX 9 1 31 2 24 3 23 4 11 5 10 6 8 7 7 9 6 10 5 11 4 12 3 13
REMARK SMILES IDX 32 14 2 15 33 16 1 17 12 19 13 20 14 21 15 22 16 23 22 24
REMARK SMILES IDX 17 25 21 26 18 27 19 28 20 29 25 30 30 31 26 32 29 33 27 34
REMARK SMILES IDX 28 35
REMARK H PARENT 8 8 1 18 28 36 28 37
REMARK Flexibility Score: inf
ROOT
ATOM      1  C   UNL     1      -2.777   2.978  -4.541  1.00  0.00     0.228 A 
ATOM      2  N   UNL     1      -2.501   2.787  -5.827  1.00  0.00    -0.177 NA
ATOM      3  C   UNL     1      -1.444   2.061  -6.179  1.00  0.00     0.231 A 
ATOM      4  N   UNL     1      -0.663   1.526  -5.245  1.00  0.00    -0.186 NA
ATOM      5  C   UNL     1      -0.940   1.718  -3.959  1.00  0.00     0.194 A 
ATOM      6  N   UNL     1      -2.000   2.440  -3.607  1.00  0.00    -0.187 NA
ENDROOT
BRANCH   1   7
ATOM      7  N   UNL     1      -3.874   3.732  -4.175  1.00  0.00    -0.354 N 
ATOM      8  H   UNL     1      -4.479   4.146  -4.899  1.00  0.00     0.163 HD
BRANCH   7   9
ATOM      9  C   UNL     1      -4.179   3.942  -2.758  1.00  0.00     0.121 C 
BRANCH   9  10
ATOM     10  C   UNL     1      -5.436   4.805  -2.629  1.00  0.00     0.057 C 
BRANCH  10  11
ATOM     11  C   UNL     1      -5.749   5.022  -1.171  1.00  0.00    -0.046 A 
ATOM     12  C   UNL     1      -6.575   4.137  -0.504  1.00  0.00     0.007 A 
ATOM     13  C   UNL     1      -6.859   4.331   0.834  1.00  0.00     0.046 A 
ATOM     14  C   UNL     1      -5.215   6.109  -0.505  1.00  0.00     0.007 A 
ATOM     15  C   UNL     1      -6.324   5.421   1.505  1.00  0.00     0.115 A 
ATOM     16  C   UNL     1      -5.500   6.311   0.832  1.00  0.00     0.046 A 
BRANCH  15  17
ATOM     17  O   UNL     1      -6.606   5.616   2.820  1.00  0.00    -0.508 OA
ATOM     18  H   UNL     1      -6.324   4.780   3.268  1.00  0.00     0.293 HD
ENDBRANCH  15  17
ENDBRANCH  10  11
ENDBRANCH   9  10
ENDBRANCH   7   9
ENDBRANCH   1   7
BRANCH   5  19
ATOM     19  S   UNL     1       0.095   1.009  -2.721  1.00  0.00    -0.086 SA
BRANCH  19  20
ATOM     20  C   UNL     1      -0.753   1.593  -1.232  1.00  0.00     0.078 C 
BRANCH  20  21
ATOM     21  C   UNL     1      -0.013   1.086   0.008  1.00  0.00     0.016 C 
BRANCH  21  22
ATOM     22  C   UNL     1      -0.729   1.579   1.267  1.00  0.00     0.036 C 
BRANCH  22  23
ATOM     23  C   UNL     1       0.000   1.080   2.488  1.00  0.00    -0.048 A 
ATOM     24  C   UNL     1       1.012   1.838   3.046  1.00  0.00     0.005 A 
ATOM     25  C   UNL     1      -0.348  -0.133   3.052  1.00  0.00     0.005 A 
ATOM     26  C   UNL     1       1.681   1.381   4.166  1.00  0.00     0.021 A 
ATOM     27  C   UNL     1       0.324  -0.594   4.168  1.00  0.00     0.021 A 
ATOM     28  C   UNL     1       1.337   0.164   4.728  1.00  0.00     0.041 A 
ATOM     29  Cl  UNL     1       2.177  -0.411   6.134  1.00  0.00    -0.084 Cl
ENDBRANCH  22  23
ENDBRANCH  21  22
ENDBRANCH  20  21
ENDBRANCH  19  20
ENDBRANCH   5  19
BRANCH   3  30
ATOM     30  N   UNL     1      -1.157   1.863  -7.515  1.00  0.00    -0.329 N 
ATOM     31  C   UNL     1       0.047   1.037  -7.678  1.00  0.00     0.181 C 
ATOM     32  C   UNL     1      -1.012   3.145  -8.218  1.00  0.00     0.181 C 
ATOM     33  C   UNL     1       0.285   0.775  -9.167  1.00  0.00     0.282 C 
ATOM     34  C   UNL     1      -0.774   2.883  -9.707  1.00  0.00     0.282 C 
ATOM     35  N   UNL     1       0.438   2.060  -9.875  1.00  0.00    -0.343 N 
ATOM     36  H   UNL     1       0.593   1.880 -10.878  1.00  0.00     0.346 HD
ATOM     37  H   UNL     1       1.251   2.564  -9.493  1.00  0.00     0.346 HD
ENDBRANCH   3  30
TORSDOF 11
