REMARK SMILES O=C1CCN(C2CC[NH+](Cc3c[nH]nc3-c3ccc(-c4ccccc4)cc3)CC2)CCN1
REMARK SMILES IDX 9 1 8 2 7 3 6 4 29 5 28 6 10 8 11 9 15 10 14 11 13 12 12 13
REMARK SMILES IDX 16 15 19 16 26 17 18 18 27 19 17 20 20 21 23 22 24 23 22 24
REMARK SMILES IDX 25 25 21 26 5 27 30 28 31 29 32 30 2 31 1 33 4 35 3 36
REMARK H PARENT 9 7 13 14 32 32
REMARK Flexibility Score: 90.00
ROOT
ATOM      1  N   UNL     1      -0.977   1.868  -0.532  1.00  0.00    -0.331 N 
ATOM      2  C   UNL     1      -1.481   2.280  -1.848  1.00  0.00     0.264 C 
ATOM      3  C   UNL     1      -1.946   3.737  -1.785  1.00  0.00     0.081 C 
ATOM      4  C   UNL     1      -0.770   4.625  -1.367  1.00  0.00     0.067 C 
ATOM      5  C   UNL     1      -0.232   4.144  -0.017  1.00  0.00     0.081 C 
ATOM      6  C   UNL     1       0.182   2.676  -0.131  1.00  0.00     0.264 C 
ATOM      7  H   UNL     1      -1.726   2.030   0.156  1.00  0.00     0.348 HD
ENDROOT
BRANCH   1   8
ATOM      8  C   UNL     1      -0.651   0.436  -0.518  1.00  0.00     0.303 C 
BRANCH   8   9
ATOM      9  C   UNL     1      -1.925  -0.369  -0.538  1.00  0.00     0.052 A 
ATOM     10  C   UNL     1      -2.741  -0.659   0.573  1.00  0.00     0.101 A 
ATOM     11  N   UNL     1      -3.759  -1.379   0.151  1.00  0.00    -0.175 NA
ATOM     12  N   UNL     1      -3.612  -1.574  -1.228  1.00  0.00    -0.285 N 
ATOM     13  C   UNL     1      -2.483  -0.947  -1.624  1.00  0.00     0.115 A 
ATOM     14  H   UNL     1      -4.254  -2.104  -1.835  1.00  0.00     0.189 HD
BRANCH  10  15
ATOM     15  C   UNL     1      -2.498  -0.225   1.971  1.00  0.00     0.003 A 
ATOM     16  C   UNL     1      -2.044   0.585   4.583  1.00  0.00    -0.018 A 
ATOM     17  C   UNL     1      -0.995   0.076   3.818  1.00  0.00     0.009 A 
ATOM     18  C   UNL     1      -3.322   0.685   4.034  1.00  0.00     0.009 A 
ATOM     19  C   UNL     1      -1.221  -0.331   2.522  1.00  0.00     0.011 A 
ATOM     20  C   UNL     1      -3.547   0.283   2.736  1.00  0.00     0.011 A 
BRANCH  16  21
ATOM     21  C   UNL     1      -1.801   1.018   5.980  1.00  0.00    -0.018 A 
ATOM     22  C   UNL     1      -1.348   1.829   8.588  1.00  0.00     0.000 A 
ATOM     23  C   UNL     1      -2.616   1.930   8.046  1.00  0.00     0.001 A 
ATOM     24  C   UNL     1      -0.305   1.324   7.832  1.00  0.00     0.001 A 
ATOM     25  C   UNL     1      -2.847   1.533   6.745  1.00  0.00     0.009 A 
ATOM     26  C   UNL     1      -0.525   0.919   6.532  1.00  0.00     0.009 A 
ENDBRANCH  16  21
ENDBRANCH  10  15
ENDBRANCH   8   9
ENDBRANCH   1   8
BRANCH   4  27
ATOM     27  N   UNL     1      -1.224   6.017  -1.248  1.00  0.00    -0.298 NA
BRANCH  27  28
ATOM     28  C   UNL     1      -2.235   6.149  -0.209  1.00  0.00     0.106 C 
BRANCH  28  29
ATOM     29  C   UNL     1      -2.991   7.473  -0.350  1.00  0.00     0.131 C 
BRANCH  29  30
ATOM     30  N   UNL     1      -2.233   8.521   0.353  1.00  0.00    -0.355 N 
ATOM     31  C   UNL     1      -1.073   8.958  -0.146  1.00  0.00     0.221 CG0
ATOM     32  H   UNL     1      -2.597   8.918   1.231  1.00  0.00     0.163 HD
ATOM     33  O   UNL     1      -0.452   9.826   0.431  1.00  0.00    -0.275 OA
ATOM     34  G   UNL     1      -0.535   8.368  -1.433  1.00  0.00     0.000 G0
ENDBRANCH  29  30
ENDBRANCH  28  29
ENDBRANCH  27  28
BRANCH  27  35
ATOM     35  C   UNL     1      -0.092   6.928  -1.157  1.00  0.00     0.094 C 
BRANCH  35  36
ATOM     36  C   UNL     1      -0.535   8.368  -1.433  1.00  0.00     0.115 CG0
ATOM     37  G   UNL     1      -1.073   8.958  -0.146  1.00  0.00     0.000 G0
ENDBRANCH  35  36
ENDBRANCH  27  35
ENDBRANCH   4  27
TORSDOF 5
