REMARK SMILES C[C@@H]1CCc2c(sc3nc(SCC(=O)N[C@H](C)c4ccc(S(N)(=O)=O)cc4)nc(N)c23)C1
REMARK SMILES IDX 13 1 14 2 15 3 12 5 11 6 10 7 1 8 2 9 32 10 3 11 6 12 4 13
REMARK SMILES IDX 5 14 7 15 31 16 8 17 29 18 9 19 28 20 30 21 16 24 17 25
REMARK SMILES IDX 18 26 27 27 19 28 26 29 20 30 21 31 22 32 24 33 25 34 23 35
REMARK H PARENT 15 4 30 22 30 23 23 36 23 37
REMARK Flexibility Score: inf
ROOT
ATOM      1  C   UNL     1      -1.161   0.896   1.189  1.00  0.00     0.230 C 
ATOM      2  O   UNL     1      -2.178   1.548   1.088  1.00  0.00    -0.274 OA
ATOM      3  N   UNL     1      -0.769   0.441   2.396  1.00  0.00    -0.349 N 
ATOM      4  H   UNL     1       0.095  -0.113   2.481  1.00  0.00     0.164 HD
ENDROOT
BRANCH   1   5
ATOM      5  C   UNL     1      -0.335   0.593  -0.035  1.00  0.00     0.178 C 
BRANCH   5   6
ATOM      6  S   UNL     1      -1.118   1.334  -1.489  1.00  0.00    -0.076 SA
BRANCH   6   7
ATOM      7  C   UNL     1       0.023   0.839  -2.737  1.00  0.00     0.191 A 
ATOM      8  C   UNL     1       4.989  -0.994  -9.364  1.00  0.00     0.008 C 
ATOM      9  C   UNL     1       4.365  -0.492  -8.060  1.00  0.00    -0.009 C 
ATOM     10  C   UNL     1       2.935  -0.003  -8.327  1.00  0.00     0.050 C 
ATOM     11  C   UNL     1       4.310  -1.633  -7.040  1.00  0.00     0.008 C 
ATOM     12  C   UNL     1       2.248   0.195  -7.010  1.00  0.00     0.011 A 
ATOM     13  C   UNL     1       3.924  -1.084  -5.666  1.00  0.00     0.038 C 
ATOM     14  C   UNL     1       2.645  -0.262  -5.806  1.00  0.00    -0.021 A 
ATOM     15  S   UNL     1       0.743   1.078  -6.698  1.00  0.00    -0.120 S 
ATOM     16  C   UNL     1       1.796   0.067  -4.658  1.00  0.00     0.057 A 
ATOM     17  C   UNL     1       0.648   0.832  -4.944  1.00  0.00     0.130 A 
ATOM     18  C   UNL     1       1.976  -0.283  -3.291  1.00  0.00     0.137 A 
ATOM     19  N   UNL     1      -0.198   1.189  -3.997  1.00  0.00    -0.211 NA
ATOM     20  N   UNL     1       1.085   0.117  -2.399  1.00  0.00    -0.205 NA
BRANCH  18  21
ATOM     21  N   UNL     1       3.069  -1.034  -2.898  1.00  0.00    -0.383 N 
ATOM     22  H   UNL     1       3.757  -1.340  -3.601  1.00  0.00     0.158 HD
ATOM     23  H   UNL     1       3.196  -1.286  -1.908  1.00  0.00     0.158 HD
ENDBRANCH  18  21
ENDBRANCH   6   7
ENDBRANCH   5   6
ENDBRANCH   1   5
BRANCH   3  24
ATOM     24  C   UNL     1      -1.571   0.736   3.586  1.00  0.00     0.109 C 
ATOM     25  C   UNL     1      -1.180   2.107   4.138  1.00  0.00     0.036 C 
BRANCH  24  26
ATOM     26  C   UNL     1      -1.321  -0.318   4.633  1.00  0.00    -0.026 A 
ATOM     27  C   UNL     1      -2.370  -0.800   5.393  1.00  0.00     0.007 A 
ATOM     28  C   UNL     1      -0.043  -0.807   4.831  1.00  0.00     0.007 A 
ATOM     29  C   UNL     1      -2.140  -1.767   6.354  1.00  0.00     0.022 A 
ATOM     30  C   UNL     1       0.188  -1.770   5.796  1.00  0.00     0.022 A 
ATOM     31  C   UNL     1      -0.862  -2.252   6.555  1.00  0.00     0.082 A 
BRANCH  31  32
ATOM     32  S   UNL     1      -0.569  -3.485   7.780  1.00  0.00     0.238 S 
ATOM     33  O   UNL     1       0.799  -3.377   8.146  1.00  0.00    -0.207 OA
ATOM     34  O   UNL     1      -1.623  -3.374   8.727  1.00  0.00    -0.207 OA
BRANCH  32  35
ATOM     35  N   UNL     1      -0.747  -4.958   7.044  1.00  0.00    -0.225 NA
ATOM     36  H   UNL     1      -0.152  -5.750   7.327  1.00  0.00     0.137 HD
ATOM     37  H   UNL     1      -1.452  -5.082   6.303  1.00  0.00     0.137 HD
ENDBRANCH  32  35
ENDBRANCH  31  32
ENDBRANCH  24  26
ENDBRANCH   3  24
TORSDOF 8
