REMARK SMILES Cc1ccc(N2C(=O)[N-]C(=O)/C(=C(/NCCc3c[nH]c4ccc(F)cc34)c3ccc(Cl)cc3)C2=O)cc1
REMARK SMILES IDX 15 1 14 2 13 4 6 5 7 6 34 7 9 8 8 9 35 10 12 11 10 12 11 13
REMARK SMILES IDX 5 14 1 15 2 16 37 17 3 18 36 19 4 20 27 21 33 22 28 23 32 24
REMARK SMILES IDX 29 25 30 26 31 27 16 28 17 29 26 30 18 31 20 32 25 33 19 34
REMARK SMILES IDX 21 35 23 36 22 38 24 39
REMARK H PARENT 14 3 19 37
REMARK Flexibility Score: inf
ROOT
ATOM      1  C   UNL     1       1.079   1.030  -0.742  1.00  0.00     0.118 C 
ENDROOT
BRANCH   1   2
ATOM      2  N   UNL     1       0.245   0.961   0.460  1.00  0.00    -0.384 N 
ATOM      3  H   UNL     1       0.545   0.389   1.262  1.00  0.00     0.160 HD
BRANCH   2   4
ATOM      4  C   UNL     1      -0.930   1.653   0.516  1.00  0.00     0.056 C 
ATOM      5  N   UNL     1      -3.371  -1.074   1.088  1.00  0.00    -0.350 N 
ATOM      6  C   UNL     1      -4.480  -0.347   1.288  1.00  0.00     0.171 C 
ATOM      7  C   UNL     1      -2.183  -0.489   0.832  1.00  0.00     0.190 C 
ATOM      8  N   UNL     1      -4.500   0.993   1.250  1.00  0.00    -0.364 NA
ATOM      9  O   UNL     1      -5.520  -0.934   1.513  1.00  0.00    -0.298 OA
ATOM     10  O   UNL     1      -1.183  -1.160   0.653  1.00  0.00    -0.293 OA
ATOM     11  C   UNL     1      -2.127   0.978   0.776  1.00  0.00     0.086 C 
ATOM     12  C   UNL     1      -3.382   1.707   1.010  1.00  0.00     0.186 C 
ATOM     13  O   UNL     1      -3.412   2.924   0.985  1.00  0.00    -0.293 OA
BRANCH   5  14
ATOM     14  C   UNL     1      -3.448  -2.472   1.146  1.00  0.00    -0.032 A 
ATOM     15  C   UNL     1      -3.686  -6.736   1.322  1.00  0.00     0.044 C 
ATOM     16  C   UNL     1      -3.602  -5.232   1.260  1.00  0.00    -0.051 A 
ATOM     17  C   UNL     1      -3.366  -4.604   0.051  1.00  0.00     0.003 A 
ATOM     18  C   UNL     1      -3.761  -4.484   2.412  1.00  0.00     0.003 A 
ATOM     19  C   UNL     1      -3.294  -3.226  -0.010  1.00  0.00     0.004 A 
ATOM     20  C   UNL     1      -3.685  -3.106   2.358  1.00  0.00     0.004 A 
ENDBRANCH   5  14
BRANCH   4  21
ATOM     21  C   UNL     1      -0.937   3.110   0.303  1.00  0.00    -0.001 A 
ATOM     22  C   UNL     1      -1.777   3.675  -0.662  1.00  0.00     0.012 A 
ATOM     23  C   UNL     1      -0.108   3.936   1.069  1.00  0.00     0.012 A 
ATOM     24  C   UNL     1      -1.779   5.040  -0.856  1.00  0.00     0.021 A 
ATOM     25  C   UNL     1      -0.117   5.299   0.861  1.00  0.00     0.021 A 
ATOM     26  C   UNL     1      -0.951   5.851  -0.097  1.00  0.00     0.041 A 
ATOM     27  Cl  UNL     1      -0.960   7.569  -0.348  1.00  0.00    -0.084 Cl
ENDBRANCH   4  21
ENDBRANCH   2   4
ENDBRANCH   1   2
BRANCH   1  28
ATOM     28  C   UNL     1       2.380   0.260  -0.506  1.00  0.00     0.059 C 
BRANCH  28  29
ATOM     29  C   UNL     1       3.238   0.332  -1.742  1.00  0.00    -0.021 A 
ATOM     30  C   UNL     1       4.167   1.408  -2.097  1.00  0.00     0.006 A 
ATOM     31  C   UNL     1       3.301  -0.581  -2.725  1.00  0.00     0.087 A 
ATOM     32  C   UNL     1       4.737   1.039  -3.329  1.00  0.00     0.046 A 
ATOM     33  C   UNL     1       4.541   2.606  -1.486  1.00  0.00     0.049 A 
ATOM     34  N   UNL     1       4.186  -0.173  -3.684  1.00  0.00    -0.361 N 
ATOM     35  C   UNL     1       5.672   1.876  -3.928  1.00  0.00     0.030 A 
ATOM     36  C   UNL     1       5.470   3.422  -2.097  1.00  0.00     0.123 A 
ATOM     37  H   UNL     1       4.409  -0.694  -4.544  1.00  0.00     0.166 HD
ATOM     38  C   UNL     1       6.032   3.056  -3.314  1.00  0.00     0.041 A 
ATOM     39  F   UNL     1       5.835   4.582  -1.509  1.00  0.00    -0.207 F 
ENDBRANCH  28  29
ENDBRANCH   1  28
TORSDOF 6
