REMARK SMILES CCCc1nnc(-c2cc3ccccc3n2[C@@H](C)C(=O)Nc2sc3c(c2C(=O)OCC)CCCC3)o1
REMARK SMILES IDX 17 1 18 2 16 3 8 4 9 5 15 6 10 7 14 8 11 9 13 10 12 11 7 12
REMARK SMILES IDX 4 13 36 14 5 15 6 16 3 17 2 18 1 19 19 20 20 21 21 22 22 24
REMARK SMILES IDX 23 25 26 26 24 27 25 28 35 29 32 30 34 31 33 32 27 33 28 34
REMARK SMILES IDX 29 35 30 36 31 37
REMARK H PARENT 21 23
REMARK Flexibility Score: inf
ROOT
ATOM      1  C   UNL     1       2.422   5.759  -0.002  1.00  0.00     0.174 C 
ATOM      2  C   UNL     1       3.219   5.748   1.304  1.00  0.00     0.042 C 
ENDROOT
BRANCH   1   3
ATOM      3  N   UNL     1       1.436   6.842   0.038  1.00  0.00    -0.324 N 
ATOM      4  C   UNL     1       1.337   7.858  -0.888  1.00  0.00     0.108 A 
ATOM      5  C   UNL     1       0.312   8.683  -0.546  1.00  0.00     0.042 A 
ATOM      6  C   UNL     1       0.472   7.000   1.008  1.00  0.00     0.049 A 
ATOM      7  C   UNL     1      -0.268   8.154   0.685  1.00  0.00     0.000 A 
ATOM      8  C   UNL     1       0.141   6.276   2.149  1.00  0.00     0.027 A 
ATOM      9  C   UNL     1      -1.323   8.559   1.510  1.00  0.00     0.010 A 
ATOM     10  C   UNL     1      -0.901   6.694   2.947  1.00  0.00     0.002 A 
ATOM     11  C   UNL     1      -1.629   7.832   2.625  1.00  0.00     0.001 A 
BRANCH   4  12
ATOM     12  C   UNL     1       2.204   8.022  -2.066  1.00  0.00     0.264 A 
ATOM     13  C   UNL     1       3.146   8.800  -3.842  1.00  0.00     0.217 A 
ATOM     14  O   UNL     1       2.200   9.063  -2.924  1.00  0.00    -0.419 OA
ATOM     15  N   UNL     1       3.685   7.652  -3.538  1.00  0.00    -0.113 NA
ATOM     16  N   UNL     1       3.131   7.184  -2.475  1.00  0.00    -0.106 NA
BRANCH  13  17
ATOM     17  C   UNL     1       3.517   9.674  -5.013  1.00  0.00     0.099 C 
BRANCH  17  18
ATOM     18  C   UNL     1       2.663   9.293  -6.224  1.00  0.00     0.006 C 
ATOM     19  C   UNL     1       3.040  10.181  -7.412  1.00  0.00     0.004 C 
ENDBRANCH  17  18
ENDBRANCH  13  17
ENDBRANCH   4  12
ENDBRANCH   1   3
BRANCH   1  20
ATOM     20  C   UNL     1       1.713   4.440  -0.169  1.00  0.00     0.247 C 
ATOM     21  O   UNL     1       0.503   4.407  -0.248  1.00  0.00    -0.272 OA
ATOM     22  N   UNL     1       2.424   3.296  -0.232  1.00  0.00    -0.315 N 
ATOM     23  H   UNL     1       3.451   3.324  -0.165  1.00  0.00     0.170 HD
BRANCH  22  24
ATOM     24  C   UNL     1       1.772   2.083  -0.386  1.00  0.00     0.110 A 
ATOM     25  S   UNL     1       0.070   1.784  -0.520  1.00  0.00    -0.122 S 
ATOM     26  C   UNL     1       2.324   0.811  -0.470  1.00  0.00     0.098 A 
ATOM     27  C   UNL     1       0.101   0.022  -0.683  1.00  0.00     0.011 A 
ATOM     28  C   UNL     1       1.410  -0.307  -0.632  1.00  0.00    -0.017 A 
ATOM     29  C   UNL     1      -1.059  -0.911  -0.845  1.00  0.00     0.047 C 
ATOM     30  C   UNL     1       1.859  -1.759  -0.740  1.00  0.00     0.038 C 
ATOM     31  C   UNL     1      -0.524  -2.271  -1.319  1.00  0.00     0.006 C 
ATOM     32  C   UNL     1       0.665  -2.667  -0.440  1.00  0.00     0.005 C 
BRANCH  26  33
ATOM     33  C   UNL     1       3.772   0.606  -0.400  1.00  0.00     0.341 C 
ATOM     34  O   UNL     1       4.438   0.618  -1.417  1.00  0.00    -0.246 OA
BRANCH  33  35
ATOM     35  O   UNL     1       4.367   0.402   0.794  1.00  0.00    -0.462 OA
BRANCH  35  36
ATOM     36  C   UNL     1       5.805   0.205   0.788  1.00  0.00     0.230 C 
ATOM     37  C   UNL     1       6.296  -0.009   2.222  1.00  0.00     0.049 C 
ENDBRANCH  35  36
ENDBRANCH  33  35
ENDBRANCH  26  33
ENDBRANCH  22  24
ENDBRANCH   1  20
TORSDOF 9
