REMARK SMILES CC(C)[C@H]([NH2+][C@@H](C)C(=O)N1CCN(c2ncccn2)CC1)c1ccc(C2CCCCC2)cc1
REMARK SMILES IDX 5 1 4 4 2 5 1 6 3 7 22 8 33 9 23 10 32 11 24 12 25 13 26 14
REMARK SMILES IDX 31 15 27 16 30 17 28 18 29 19 6 20 7 21 8 22 9 23 10 24
REMARK SMILES IDX 21 25 11 26 20 27 12 28 13 29 14 30 19 31 15 32 18 33 16 34
REMARK SMILES IDX 17 35
REMARK H PARENT 5 2 5 3
REMARK Flexibility Score: inf
ROOT
ATOM      1  N   UNL     1      -0.888   3.028   1.460  1.00  0.00    -0.330 N 
ATOM      2  H   UNL     1      -1.078   3.219   2.454  1.00  0.00     0.347 HD
ATOM      3  H   UNL     1      -0.014   3.502   1.191  1.00  0.00     0.347 HD
ENDROOT
BRANCH   1   4
ATOM      4  C   UNL     1      -1.993   3.550   0.645  1.00  0.00     0.216 C 
BRANCH   4   5
ATOM      5  C   UNL     1      -3.312   3.373   1.401  1.00  0.00     0.046 C 
ATOM      6  C   UNL     1      -3.296   4.237   2.663  1.00  0.00     0.014 C 
ATOM      7  C   UNL     1      -4.475   3.801   0.504  1.00  0.00     0.014 C 
ENDBRANCH   4   5
BRANCH   4   8
ATOM      8  C   UNL     1      -1.766   5.013   0.368  1.00  0.00     0.009 A 
ATOM      9  C   UNL     1      -2.055   5.534  -0.879  1.00  0.00     0.010 A 
ATOM     10  C   UNL     1      -1.272   5.837   1.363  1.00  0.00     0.010 A 
ATOM     11  C   UNL     1      -1.846   6.877  -1.133  1.00  0.00     0.004 A 
ATOM     12  C   UNL     1      -1.059   7.178   1.108  1.00  0.00     0.004 A 
ATOM     13  C   UNL     1      -1.349   7.699  -0.139  1.00  0.00    -0.045 A 
BRANCH  13  14
ATOM     14  C   UNL     1      -1.121   9.163  -0.416  1.00  0.00     0.019 C 
ATOM     15  C   UNL     1      -1.971  10.001   0.540  1.00  0.00     0.008 C 
ATOM     16  C   UNL     1       0.358   9.497  -0.210  1.00  0.00     0.008 C 
ATOM     17  C   UNL     1      -1.740  11.487   0.259  1.00  0.00     0.001 C 
ATOM     18  C   UNL     1       0.589  10.983  -0.491  1.00  0.00     0.001 C 
ATOM     19  C   UNL     1      -0.261  11.821   0.466  1.00  0.00     0.000 C 
ENDBRANCH  13  14
ENDBRANCH   4   8
ENDBRANCH   1   4
BRANCH   1  20
ATOM     20  C   UNL     1      -0.731   1.580   1.268  1.00  0.00     0.270 C 
ATOM     21  C   UNL     1       0.141   1.320   0.038  1.00  0.00     0.086 C 
BRANCH  20  22
ATOM     22  C   UNL     1      -0.074   0.981   2.485  1.00  0.00     0.280 C 
ATOM     23  O   UNL     1       0.647   1.662   3.183  1.00  0.00    -0.268 OA
ATOM     24  N   UNL     1      -0.287  -0.313   2.797  1.00  0.00    -0.334 N 
ATOM     25  C   UNL     1       0.253  -0.889   4.038  1.00  0.00     0.141 C 
ATOM     26  C   UNL     1      -1.071  -1.185   1.909  1.00  0.00     0.141 C 
ATOM     27  C   UNL     1       1.012  -2.173   3.689  1.00  0.00     0.141 C 
ATOM     28  C   UNL     1      -0.254  -2.459   1.641  1.00  0.00     0.141 C 
ATOM     29  N   UNL     1       0.133  -3.065   2.922  1.00  0.00    -0.337 N 
BRANCH  29  30
ATOM     30  C   UNL     1       0.727  -4.300   2.727  1.00  0.00     0.225 A 
ATOM     31  N   UNL     1       0.072  -5.233   2.052  1.00  0.00    -0.221 NA
ATOM     32  N   UNL     1       1.939  -4.519   3.216  1.00  0.00    -0.221 NA
ATOM     33  C   UNL     1       0.612  -6.424   1.848  1.00  0.00     0.117 A 
ATOM     34  C   UNL     1       2.532  -5.690   3.053  1.00  0.00     0.117 A 
ATOM     35  C   UNL     1       1.876  -6.688   2.351  1.00  0.00     0.040 A 
ENDBRANCH  29  30
ENDBRANCH  20  22
ENDBRANCH   1  20
TORSDOF 7
