REMARK SMILES CCCCc1ccc2nc(NC(=O)c3sc4[nH]c(CSC)nc(=O)c4c3C)sc2c1
REMARK SMILES IDX 5 1 6 2 7 3 8 4 29 5 30 6 28 7 10 8 9 9 4 10 3 11 2 12 1 13
REMARK SMILES IDX 11 14 12 15 13 17 14 18 15 19 26 20 16 21 25 22 27 23 17 24
REMARK SMILES IDX 23 25 18 26 22 28 24 29 19 30 20 31 21 32
REMARK H PARENT 11 16 17 27
REMARK Flexibility Score: inf
ROOT
ATOM      1  C   UNL     1      -0.755   3.526   1.278  1.00  0.00    -0.046 A 
ATOM      2  C   UNL     1      -1.807   4.216   0.693  1.00  0.00     0.006 A 
ATOM      3  C   UNL     1      -1.850   5.585   0.686  1.00  0.00     0.030 A 
ATOM      4  C   UNL     1      -0.815   6.343   1.282  1.00  0.00     0.084 A 
ATOM      5  C   UNL     1       0.239   5.607   1.868  1.00  0.00     0.057 A 
ATOM      6  C   UNL     1       0.272   4.235   1.873  1.00  0.00     0.025 A 
ATOM      7  S   UNL     1       1.300   6.892   2.486  1.00  0.00    -0.097 S 
ATOM      8  C   UNL     1       0.310   8.279   1.945  1.00  0.00     0.190 A 
ATOM      9  N   UNL     1      -0.706   7.687   1.362  1.00  0.00    -0.220 NA
ENDROOT
BRANCH   1  10
ATOM     10  C   UNL     1      -0.735   2.019   1.269  1.00  0.00     0.035 C 
BRANCH  10  11
ATOM     11  C   UNL     1      -0.019   1.526   0.010  1.00  0.00     0.004 C 
BRANCH  11  12
ATOM     12  C   UNL     1       0.002  -0.004   0.002  1.00  0.00    -0.003 C 
ATOM     13  C   UNL     1       0.718  -0.497  -1.257  1.00  0.00     0.004 C 
ENDBRANCH  11  12
ENDBRANCH  10  11
ENDBRANCH   1  10
BRANCH   8  14
ATOM     14  N   UNL     1       0.553   9.632   2.103  1.00  0.00    -0.297 N 
ATOM     15  C   UNL     1      -0.323  10.535   1.619  1.00  0.00     0.267 C 
ATOM     16  H   UNL     1       1.404   9.950   2.589  1.00  0.00     0.172 HD
ATOM     17  O   UNL     1      -1.328  10.160   1.045  1.00  0.00    -0.268 OA
BRANCH  15  18
ATOM     18  C   UNL     1      -0.066  11.968   1.786  1.00  0.00     0.098 A 
ATOM     19  S   UNL     1       1.317  12.766   2.580  1.00  0.00    -0.112 S 
ATOM     20  C   UNL     1      -0.821  13.024   1.366  1.00  0.00    -0.012 A 
ATOM     21  C   UNL     1       0.849  14.406   2.337  1.00  0.00     0.108 A 
ATOM     22  C   UNL     1      -0.371  14.319   1.645  1.00  0.00     0.080 A 
ATOM     23  C   UNL     1      -2.113  12.801   0.623  1.00  0.00     0.047 C 
ATOM     24  N   UNL     1       1.385  15.611   2.657  1.00  0.00    -0.334 N 
ATOM     25  C   UNL     1      -0.997  15.621   1.309  1.00  0.00     0.281 A 
ATOM     26  C   UNL     1       0.756  16.755   2.317  1.00  0.00     0.121 A 
ATOM     27  H   UNL     1       2.280  15.653   3.165  1.00  0.00     0.169 HD
ATOM     28  N   UNL     1      -0.378  16.754   1.675  1.00  0.00    -0.195 NA
ATOM     29  O   UNL     1      -2.059  15.662   0.709  1.00  0.00    -0.267 OA
BRANCH  26  30
ATOM     30  C   UNL     1       1.383  18.073   2.691  1.00  0.00     0.144 C 
BRANCH  30  31
ATOM     31  S   UNL     1       0.793  18.581   4.329  1.00  0.00    -0.157 SA
ATOM     32  C   UNL     1       1.629  20.162   4.627  1.00  0.00     0.085 C 
ENDBRANCH  30  31
ENDBRANCH  26  30
ENDBRANCH  15  18
ENDBRANCH   8  14
TORSDOF 7
