REMARK SMILES CC(C)CCOC(=O)c1c(N)n(-c2cccc(O)c2)c2nc3ccccc3nc12
REMARK SMILES IDX 7 1 8 2 6 3 5 4 4 5 2 6 1 7 3 8 9 9 10 10 29 11 12 12 28 13
REMARK SMILES IDX 20 14 27 15 21 16 22 17 26 18 23 19 25 20 24 21 11 22 13 25
REMARK SMILES IDX 19 26 14 27 17 28 15 29 16 30 18 31
REMARK H PARENT 11 23 11 24 18 32
REMARK Flexibility Score: inf
ROOT
ATOM      1  C   UNL     1       0.564   8.490  -1.473  1.00  0.00     0.344 C 
ATOM      2  O   UNL     1      -0.245   8.954  -2.256  1.00  0.00    -0.246 OA
ENDROOT
BRANCH   1   3
ATOM      3  O   UNL     1       1.794   9.034  -1.373  1.00  0.00    -0.462 OA
BRANCH   3   4
ATOM      4  C   UNL     1       2.080  10.152  -2.216  1.00  0.00     0.233 C 
BRANCH   4   5
ATOM      5  C   UNL     1       3.512  10.629  -1.962  1.00  0.00     0.045 C 
BRANCH   5   6
ATOM      6  C   UNL     1       3.818  11.826  -2.865  1.00  0.00    -0.014 C 
ATOM      7  C   UNL     1       5.202  12.381  -2.524  1.00  0.00     0.007 C 
ATOM      8  C   UNL     1       3.792  11.381  -4.328  1.00  0.00     0.007 C 
ENDBRANCH   5   6
ENDBRANCH   4   5
ENDBRANCH   3   4
ENDBRANCH   1   3
BRANCH   1   9
ATOM      9  C   UNL     1       0.213   7.379  -0.668  1.00  0.00     0.130 A 
ATOM     10  C   UNL     1       0.377   6.035  -0.986  1.00  0.00     0.126 A 
ATOM     11  C   UNL     1      -0.398   7.420   0.672  1.00  0.00     0.125 A 
ATOM     12  N   UNL     1      -0.074   5.247   0.030  1.00  0.00    -0.278 N 
ATOM     13  N   UNL     1      -0.780   8.386   1.482  1.00  0.00    -0.242 NA
ATOM     14  C   UNL     1      -0.563   6.019   1.067  1.00  0.00     0.166 A 
ATOM     15  C   UNL     1      -1.316   8.079   2.670  1.00  0.00     0.090 A 
ATOM     16  N   UNL     1      -1.086   5.734   2.240  1.00  0.00    -0.226 NA
ATOM     17  C   UNL     1      -1.472   6.724   3.056  1.00  0.00     0.091 A 
ATOM     18  C   UNL     1      -1.730   9.098   3.548  1.00  0.00     0.030 A 
ATOM     19  C   UNL     1      -2.038   6.429   4.310  1.00  0.00     0.031 A 
ATOM     20  C   UNL     1      -2.273   8.773   4.752  1.00  0.00     0.002 A 
ATOM     21  C   UNL     1      -2.426   7.441   5.132  1.00  0.00     0.002 A 
BRANCH  10  22
ATOM     22  N   UNL     1       0.916   5.568  -2.156  1.00  0.00    -0.384 N 
ATOM     23  H   UNL     1       1.217   6.279  -2.839  1.00  0.00     0.158 HD
ATOM     24  H   UNL     1       1.021   4.563  -2.355  1.00  0.00     0.158 HD
ENDBRANCH  10  22
BRANCH  12  25
ATOM     25  C   UNL     1      -0.051   3.846   0.022  1.00  0.00     0.053 A 
ATOM     26  C   UNL     1       1.161   3.171   0.007  1.00  0.00     0.072 A 
ATOM     27  C   UNL     1      -1.242   3.131   0.030  1.00  0.00     0.027 A 
ATOM     28  C   UNL     1       1.180   1.785   0.000  1.00  0.00     0.117 A 
ATOM     29  C   UNL     1      -1.219   1.750   0.017  1.00  0.00     0.006 A 
ATOM     30  C   UNL     1      -0.013   1.076   0.008  1.00  0.00     0.046 A 
BRANCH  28  31
ATOM     31  O   UNL     1       2.366   1.121  -0.015  1.00  0.00    -0.508 OA
ATOM     32  H   UNL     1       2.321   0.538  -0.813  1.00  0.00     0.293 HD
ENDBRANCH  28  31
ENDBRANCH  12  25
ENDBRANCH   1   9
TORSDOF 8
