REMARK SMILES CC(C)c1nc2sc3c(c2c2nnc(SCC(N)=O)n12)CC[C@@H](C)C3
REMARK SMILES IDX 15 1 14 2 24 3 23 4 25 5 22 6 8 7 21 8 9 9 7 10 10 11 6 12
REMARK SMILES IDX 11 13 5 14 20 15 12 16 4 17 13 18 2 19 1 20 3 21 16 22 17 23
REMARK SMILES IDX 19 24 18 25
REMARK H PARENT 18 26 18 27
REMARK Flexibility Score: inf
ROOT
ATOM      1  S   UNL     1      -2.571   5.970   0.159  1.00  0.00    -0.076 SA
ENDROOT
BRANCH   1   2
ATOM      2  C   UNL     1      -2.210   4.245   0.130  1.00  0.00     0.197 A 
ATOM      3  C   UNL     1       0.347  -4.317   0.011  1.00  0.00     0.008 C 
ATOM      4  C   UNL     1       0.204  -2.826   0.326  1.00  0.00    -0.009 C 
ATOM      5  C   UNL     1       1.483  -2.086  -0.094  1.00  0.00     0.050 C 
ATOM      6  C   UNL     1      -0.978  -2.244  -0.455  1.00  0.00     0.008 C 
ATOM      7  C   UNL     1       1.208  -0.615  -0.067  1.00  0.00     0.011 A 
ATOM      8  C   UNL     1      -1.282  -0.829   0.040  1.00  0.00     0.038 C 
ATOM      9  C   UNL     1       0.002  -0.004  -0.008  1.00  0.00    -0.021 A 
ATOM     10  S   UNL     1       2.380   0.714  -0.105  1.00  0.00    -0.120 S 
ATOM     11  C   UNL     1      -0.017   1.413   0.008  1.00  0.00     0.060 A 
ATOM     12  C   UNL     1       1.225   2.062  -0.041  1.00  0.00     0.129 A 
ATOM     13  C   UNL     1      -1.188   2.317   0.062  1.00  0.00     0.173 A 
ATOM     14  N   UNL     1       1.338   3.388  -0.033  1.00  0.00    -0.223 NA
ATOM     15  N   UNL     1      -0.968   3.677   0.070  1.00  0.00    -0.257 N 
ATOM     16  N   UNL     1      -2.482   2.128   0.123  1.00  0.00    -0.129 NA
ATOM     17  C   UNL     1       0.302   4.175   0.020  1.00  0.00     0.120 A 
ATOM     18  N   UNL     1      -3.085   3.266   0.160  1.00  0.00    -0.122 NA
BRANCH  17  19
ATOM     19  C   UNL     1       0.509   5.668   0.025  1.00  0.00     0.050 C 
ATOM     20  C   UNL     1       1.194   6.083   1.328  1.00  0.00     0.016 C 
ATOM     21  C   UNL     1       1.388   6.065  -1.163  1.00  0.00     0.016 C 
ENDBRANCH  17  19
ENDBRANCH   1   2
BRANCH   1  22
ATOM     22  C   UNL     1      -4.382   6.038   0.239  1.00  0.00     0.177 C 
BRANCH  22  23
ATOM     23  C   UNL     1      -4.829   7.477   0.271  1.00  0.00     0.227 C 
ATOM     24  O   UNL     1      -4.007   8.368   0.242  1.00  0.00    -0.274 OA
ATOM     25  N   UNL     1      -6.143   7.773   0.331  1.00  0.00    -0.369 N 
ATOM     26  H   UNL     1      -6.841   7.016   0.355  1.00  0.00     0.159 HD
ATOM     27  H   UNL     1      -6.448   8.756   0.352  1.00  0.00     0.159 HD
ENDBRANCH  22  23
ENDBRANCH   1  22
TORSDOF 4
