REMARK SMILES COC(=O)[C@]1(Cc2ccc(O)cc2)N[C@@H](c2cccc(F)c2)[C@H]2C(=O)N(c3ccccc3F)C(=O)[C@@H]21
REMARK SMILES IDX 5 1 36 2 23 3 15 4 14 5 24 6 25 7 26 8 34 9 35 10 3 12 4 13
REMARK SMILES IDX 2 14 1 15 6 16 7 17 13 18 8 19 12 20 9 21 10 22 11 23 16 25
REMARK SMILES IDX 22 26 17 27 20 28 18 29 19 30 21 31 27 32 32 33 28 34 31 35
REMARK SMILES IDX 33 36 29 37 30 38
REMARK H PARENT 14 11 11 24
REMARK Flexibility Score: inf
ROOT
ATOM      1  C   UNL     1       5.037   4.890  -0.063  1.00  0.00     0.134 C 
ATOM      2  C   UNL     1       6.334   5.590   0.026  1.00  0.00     0.126 C 
ATOM      3  C   UNL     1       5.877   7.029   0.497  1.00  0.00     0.116 C 
ATOM      4  C   UNL     1       4.995   6.588   1.663  1.00  0.00     0.098 C 
ATOM      5  N   UNL     1       4.370   5.305   1.219  1.00  0.00    -0.293 NA
ATOM      6  C   UNL     1       7.263   7.551   0.763  1.00  0.00     0.239 C 
ATOM      7  O   UNL     1       7.605   8.308   1.646  1.00  0.00    -0.274 OA
ATOM      8  N   UNL     1       8.055   6.992  -0.199  1.00  0.00    -0.247 N 
ATOM      9  C   UNL     1       7.455   5.931  -0.820  1.00  0.00     0.240 C 
ATOM     10  O   UNL     1       7.792   5.396  -1.854  1.00  0.00    -0.274 OA
ATOM     11  H   UNL     1       4.516   4.582   1.938  1.00  0.00     0.124 HD
ENDROOT
BRANCH   1  12
ATOM     12  C   UNL     1       4.251   5.365  -1.258  1.00  0.00     0.327 C 
ATOM     13  O   UNL     1       4.827   5.785  -2.232  1.00  0.00    -0.250 OA
BRANCH  12  14
ATOM     14  O   UNL     1       2.909   5.321  -1.238  1.00  0.00    -0.468 OA
ATOM     15  C   UNL     1       2.217   5.794  -2.424  1.00  0.00     0.282 C 
ENDBRANCH  12  14
ENDBRANCH   1  12
BRANCH   1  16
ATOM     16  C   UNL     1       5.236   3.374  -0.110  1.00  0.00     0.070 C 
BRANCH  16  17
ATOM     17  C   UNL     1       3.892   2.692  -0.126  1.00  0.00    -0.045 A 
ATOM     18  C   UNL     1       3.281   2.343   1.064  1.00  0.00     0.007 A 
ATOM     19  C   UNL     1       3.273   2.416  -1.331  1.00  0.00     0.007 A 
ATOM     20  C   UNL     1       2.047   1.722   1.052  1.00  0.00     0.046 A 
ATOM     21  C   UNL     1       2.041   1.791  -1.349  1.00  0.00     0.046 A 
ATOM     22  C   UNL     1       1.426   1.439  -0.156  1.00  0.00     0.115 A 
BRANCH  22  23
ATOM     23  O   UNL     1       0.214   0.824  -0.171  1.00  0.00    -0.508 OA
ATOM     24  H   UNL     1       0.346   0.016  -0.727  1.00  0.00     0.293 HD
ENDBRANCH  22  23
ENDBRANCH  16  17
ENDBRANCH   1  16
BRANCH   4  25
ATOM     25  C   UNL     1       5.832   6.363   2.896  1.00  0.00    -0.027 A 
ATOM     26  C   UNL     1       6.408   5.128   3.124  1.00  0.00     0.044 A 
ATOM     27  C   UNL     1       6.019   7.391   3.801  1.00  0.00     0.005 A 
ATOM     28  C   UNL     1       7.181   4.923   4.254  1.00  0.00     0.123 A 
ATOM     29  C   UNL     1       6.787   7.187   4.932  1.00  0.00     0.003 A 
ATOM     30  C   UNL     1       7.368   5.953   5.160  1.00  0.00     0.039 A 
ATOM     31  F   UNL     1       7.749   3.717   4.475  1.00  0.00    -0.207 F 
ENDBRANCH   4  25
BRANCH   8  32
ATOM     32  C   UNL     1       9.337   7.462  -0.522  1.00  0.00     0.087 A 
ATOM     33  C   UNL     1       9.496   8.429  -1.508  1.00  0.00     0.147 A 
ATOM     34  C   UNL     1      10.449   6.960   0.139  1.00  0.00     0.030 A 
ATOM     35  C   UNL     1      10.761   8.894  -1.820  1.00  0.00     0.041 A 
ATOM     36  F   UNL     1       8.417   8.917  -2.158  1.00  0.00    -0.205 F 
ATOM     37  C   UNL     1      11.710   7.425  -0.181  1.00  0.00     0.002 A 
ATOM     38  C   UNL     1      11.866   8.390  -1.159  1.00  0.00     0.003 A 
ENDBRANCH   8  32
TORSDOF 7
