REMARK SMILES Cc1ccc(-c2n[nH]/c(=N/c3ccc(S(N)(=O)=O)cc3)c3ccccc23)cc1S(=O)(=O)NC(C)(C)C
REMARK SMILES IDX 6 1 26 2 25 3 24 4 23 5 22 6 21 7 9 8 10 9 8 10 7 11 5 13
REMARK SMILES IDX 1 14 2 15 28 16 3 17 27 18 4 19 29 20 30 21 31 22 32 23
REMARK SMILES IDX 33 25 34 26 35 27 36 28 11 29 20 30 12 31 19 32 13 33 14 34
REMARK SMILES IDX 15 35 17 36 18 37 16 38
REMARK H PARENT 8 12 32 24 16 39 16 40
REMARK Flexibility Score: inf
ROOT
ATOM      1  C   UNL     1       3.387   2.898   3.511  1.00  0.00     0.099 A 
ATOM      2  C   UNL     1       4.846   3.075   3.431  1.00  0.00     0.014 A 
ATOM      3  C   UNL     1       5.681   2.101   2.889  1.00  0.00     0.011 A 
ATOM      4  C   UNL     1       7.041   2.320   2.844  1.00  0.00     0.001 A 
ATOM      5  C   UNL     1       7.589   3.498   3.333  1.00  0.00     0.001 A 
ATOM      6  C   UNL     1       6.781   4.480   3.861  1.00  0.00     0.013 A 
ATOM      7  C   UNL     1       5.407   4.276   3.919  1.00  0.00     0.028 A 
ATOM      8  C   UNL     1       4.479   5.274   4.483  1.00  0.00     0.154 A 
ATOM      9  N   UNL     1       4.876   6.192   5.344  1.00  0.00    -0.229 NA
ATOM     10  N   UNL     1       3.167   5.189   4.053  1.00  0.00    -0.260 N 
ATOM     11  N   UNL     1       2.620   3.917   3.818  1.00  0.00    -0.173 NA
ATOM     12  H   UNL     1       2.604   6.039   3.908  1.00  0.00     0.192 HD
ENDROOT
BRANCH   1  13
ATOM     13  C   UNL     1       2.786   1.569   3.252  1.00  0.00     0.004 A 
ATOM     14  C   UNL     1       1.050  -2.266   2.503  1.00  0.00     0.046 C 
ATOM     15  C   UNL     1       1.661  -0.914   2.767  1.00  0.00    -0.031 A 
ATOM     16  C   UNL     1       0.978   0.233   2.407  1.00  0.00     0.086 A 
ATOM     17  C   UNL     1       2.904  -0.826   3.369  1.00  0.00     0.005 A 
ATOM     18  C   UNL     1       1.533   1.474   2.646  1.00  0.00     0.032 A 
ATOM     19  C   UNL     1       3.470   0.409   3.612  1.00  0.00     0.011 A 
BRANCH  16  20
ATOM     20  S   UNL     1      -0.604   0.111   1.642  1.00  0.00     0.241 S 
ATOM     21  O   UNL     1      -1.382  -0.759   2.454  1.00  0.00    -0.207 OA
ATOM     22  O   UNL     1      -1.013   1.437   1.339  1.00  0.00    -0.207 OA
BRANCH  20  23
ATOM     23  N   UNL     1      -0.389  -0.662   0.193  1.00  0.00    -0.206 NA
ATOM     24  H   UNL     1      -0.788  -1.600   0.045  1.00  0.00     0.141 HD
BRANCH  23  25
ATOM     25  C   UNL     1       0.368  -0.010  -0.879  1.00  0.00     0.025 C 
ATOM     26  C   UNL     1       1.823   0.167  -0.440  1.00  0.00     0.028 C 
ATOM     27  C   UNL     1       0.317  -0.877  -2.139  1.00  0.00     0.028 C 
ATOM     28  C   UNL     1      -0.245   1.359  -1.177  1.00  0.00     0.028 C 
ENDBRANCH  23  25
ENDBRANCH  20  23
ENDBRANCH  16  20
ENDBRANCH   1  13
BRANCH   9  29
ATOM     29  C   UNL     1       6.143   6.147   5.855  1.00  0.00     0.066 A 
ATOM     30  C   UNL     1       7.105   7.065   5.426  1.00  0.00     0.030 A 
ATOM     31  C   UNL     1       6.480   5.188   6.813  1.00  0.00     0.030 A 
ATOM     32  C   UNL     1       8.382   7.014   5.945  1.00  0.00     0.024 A 
ATOM     33  C   UNL     1       7.762   5.146   7.320  1.00  0.00     0.024 A 
ATOM     34  C   UNL     1       8.710   6.058   6.890  1.00  0.00     0.082 A 
BRANCH  34  35
ATOM     35  S   UNL     1      10.343   6.001   7.548  1.00  0.00     0.238 S 
ATOM     36  O   UNL     1      10.548   4.673   8.012  1.00  0.00    -0.207 OA
ATOM     37  O   UNL     1      11.191   6.611   6.585  1.00  0.00    -0.207 OA
BRANCH  35  38
ATOM     38  N   UNL     1      10.367   6.978   8.886  1.00  0.00    -0.225 NA
ATOM     39  H   UNL     1      10.524   6.570   9.818  1.00  0.00     0.137 HD
ATOM     40  H   UNL     1      10.224   7.993   8.784  1.00  0.00     0.137 HD
ENDBRANCH  35  38
ENDBRANCH  34  35
ENDBRANCH   9  29
TORSDOF 7
