REMARK SMILES C[C@@H]1CCc2c(sc3nc(CN4CCOCC4)nc(N4CCN(c5ccc(O)cc5)CC4)c23)C1
REMARK SMILES IDX 1 1 2 2 3 3 4 4 5 5 6 6 7 7 8 8 33 9 19 10 18 11 10 12 9 13
REMARK SMILES IDX 34 14 20 15 32 16 21 17 31 18 22 19 23 20 24 21 30 22 25 23
REMARK SMILES IDX 29 24 26 25 27 26 28 27 11 29 12 30 17 31 13 32 16 33 14 34
REMARK SMILES IDX 15 35
REMARK H PARENT 28 28
REMARK Flexibility Score: inf
ROOT
ATOM      1  C   UNL     1      -1.407  -0.502   0.473  1.00  0.00     0.008 C 
ATOM      2  C   UNL     1      -0.014   0.024   0.120  1.00  0.00    -0.009 C 
ATOM      3  C   UNL     1       1.000  -0.460   1.160  1.00  0.00     0.008 C 
ATOM      4  C   UNL     1       2.420  -0.153   0.682  1.00  0.00     0.038 C 
ATOM      5  C   UNL     1       2.510   1.327   0.319  1.00  0.00    -0.021 A 
ATOM      6  C   UNL     1       1.390   2.045   0.080  1.00  0.00     0.011 A 
ATOM      7  S   UNL     1       1.957   3.685  -0.296  1.00  0.00    -0.120 S 
ATOM      8  C   UNL     1       3.691   3.408  -0.135  1.00  0.00     0.129 A 
ATOM      9  C   UNL     1       3.775   2.035   0.209  1.00  0.00     0.057 A 
ATOM     10  C   UNL     1       5.080   1.502   0.411  1.00  0.00     0.141 A 
ATOM     11  N   UNL     1       6.088   2.358   0.253  1.00  0.00    -0.214 NA
ATOM     12  C   UNL     1       5.933   3.626  -0.068  1.00  0.00     0.146 A 
ATOM     13  N   UNL     1       4.746   4.187  -0.270  1.00  0.00    -0.220 NA
ATOM     14  C   UNL     1      -0.026   1.559   0.123  1.00  0.00     0.050 C 
ENDROOT
BRANCH  10  15
ATOM     15  N   UNL     1       5.288   0.177   0.750  1.00  0.00    -0.352 N 
ATOM     16  C   UNL     1       6.031  -0.527  -0.304  1.00  0.00     0.139 C 
ATOM     17  C   UNL     1       5.980   0.066   2.042  1.00  0.00     0.139 C 
ATOM     18  C   UNL     1       6.171  -2.004   0.072  1.00  0.00     0.138 C 
ATOM     19  C   UNL     1       6.120  -1.411   2.418  1.00  0.00     0.138 C 
ATOM     20  N   UNL     1       6.863  -2.114   1.363  1.00  0.00    -0.368 N 
BRANCH  20  21
ATOM     21  C   UNL     1       7.073  -3.454   1.706  1.00  0.00     0.037 A 
ATOM     22  C   UNL     1       7.715  -3.775   2.895  1.00  0.00     0.030 A 
ATOM     23  C   UNL     1       6.635  -4.465   0.861  1.00  0.00     0.030 A 
ATOM     24  C   UNL     1       7.922  -5.098   3.233  1.00  0.00     0.048 A 
ATOM     25  C   UNL     1       6.848  -5.787   1.197  1.00  0.00     0.048 A 
ATOM     26  C   UNL     1       7.489  -6.106   2.385  1.00  0.00     0.115 A 
BRANCH  26  27
ATOM     27  O   UNL     1       7.693  -7.409   2.719  1.00  0.00    -0.508 OA
ATOM     28  H   UNL     1       8.197  -7.792   1.957  1.00  0.00     0.293 HD
ENDBRANCH  26  27
ENDBRANCH  20  21
ENDBRANCH  10  15
BRANCH  12  29
ATOM     29  C   UNL     1       7.163   4.484  -0.214  1.00  0.00     0.162 C 
BRANCH  29  30
ATOM     30  N   UNL     1       7.635   4.431  -1.604  1.00  0.00    -0.291 NA
ATOM     31  C   UNL     1       8.685   5.432  -1.843  1.00  0.00     0.113 C 
ATOM     32  C   UNL     1       8.113   3.083  -1.947  1.00  0.00     0.113 C 
ATOM     33  C   UNL     1       9.104   5.383  -3.314  1.00  0.00     0.175 C 
ATOM     34  C   UNL     1       8.539   3.057  -3.418  1.00  0.00     0.175 C 
ATOM     35  O   UNL     1       9.536   4.058  -3.638  1.00  0.00    -0.379 OA
ENDBRANCH  29  30
ENDBRANCH  12  29
TORSDOF 5
