REMARK SMILES O=C1C[C@@H](c2cccs2)CC2=C1[C@H](c1cccc([N+](=O)[O-])c1)c1c(nn(-c3ccccc3)c1[O-])N2
REMARK SMILES IDX 26 1 33 2 34 3 23 4 24 5 25 6 35 7 11 8 12 9 13 10 2 11 1 12
REMARK SMILES IDX 3 13 4 14 10 15 27 17 30 18 31 19 29 20 32 21 28 22 14 23
REMARK SMILES IDX 22 24 15 25 18 26 16 27 17 28 19 29 21 30 20 31 5 32 9 33
REMARK SMILES IDX 6 34 8 35 7 36
REMARK H PARENT 35 16
REMARK Flexibility Score: inf
ROOT
ATOM      1  N   UNL     1      -0.448  -2.190   0.127  1.00  0.00    -0.246 N 
ATOM      2  C   UNL     1       0.850  -2.065  -0.228  1.00  0.00    -0.003 A 
ATOM      3  O   UNL     1       1.627  -2.979  -0.439  1.00  0.00    -0.858 OA
ATOM      4  C   UNL     1       1.141  -0.703  -0.311  1.00  0.00     0.020 A 
ATOM      5  C   UNL     1       0.002  -0.004   0.002  1.00  0.00     0.156 A 
ATOM      6  N   UNL     1      -0.986  -0.900   0.271  1.00  0.00    -0.150 NA
ATOM      7  N   UNL     1      -0.017   1.370   0.010  1.00  0.00    -0.342 N 
ATOM      8  C   UNL     1       1.181   2.047   0.002  1.00  0.00     0.025 C 
ATOM      9  C   UNL     1       2.349   1.444  -0.298  1.00  0.00     0.027 C 
ATOM     10  C   UNL     1       2.432  -0.021  -0.670  1.00  0.00     0.090 C 
ATOM     11  C   UNL     1       3.561   2.162  -0.274  1.00  0.00     0.162 C 
ATOM     12  O   UNL     1       4.594   1.592  -0.562  1.00  0.00    -0.294 OA
ATOM     13  C   UNL     1       3.605   3.617   0.099  1.00  0.00     0.090 C 
ATOM     14  C   UNL     1       2.436   3.925   1.041  1.00  0.00     0.043 C 
ATOM     15  C   UNL     1       1.137   3.519   0.342  1.00  0.00     0.064 C 
ATOM     16  H   UNL     1      -0.910   1.883   0.021  1.00  0.00     0.168 HD
ENDROOT
BRANCH   1  17
ATOM     17  C   UNL     1      -1.135  -3.393   0.318  1.00  0.00     0.064 A 
ATOM     18  C   UNL     1      -2.495  -5.773   0.695  1.00  0.00     0.000 A 
ATOM     19  C   UNL     1      -1.162  -5.790   0.330  1.00  0.00     0.002 A 
ATOM     20  C   UNL     1      -3.151  -4.568   0.871  1.00  0.00     0.002 A 
ATOM     21  C   UNL     1      -0.481  -4.604   0.136  1.00  0.00     0.028 A 
ATOM     22  C   UNL     1      -2.475  -3.378   0.684  1.00  0.00     0.028 A 
ENDBRANCH   1  17
BRANCH  10  23
ATOM     23  C   UNL     1       2.672  -0.150  -2.152  1.00  0.00    -0.029 A 
ATOM     24  C   UNL     1       3.806  -0.789  -2.615  1.00  0.00     0.090 A 
ATOM     25  C   UNL     1       1.755   0.366  -3.049  1.00  0.00     0.005 A 
ATOM     26  C   UNL     1       4.027  -0.908  -3.975  1.00  0.00     0.269 A 
ATOM     27  C   UNL     1       1.977   0.252  -4.408  1.00  0.00     0.007 A 
ATOM     28  C   UNL     1       3.112  -0.387  -4.871  1.00  0.00     0.085 A 
BRANCH  26  29
ATOM     29  N   UNL     1       5.242  -1.592  -4.471  1.00  0.00     0.062 N 
ATOM     30  O   UNL     1       6.048  -2.051  -3.681  1.00  0.00    -0.258 OA
ATOM     31  O   UNL     1       5.436  -1.696  -5.669  1.00  0.00    -0.258 OA
ENDBRANCH  26  29
ENDBRANCH  10  23
BRANCH  14  32
ATOM     32  C   UNL     1       2.407   5.399   1.350  1.00  0.00     0.008 A 
ATOM     33  S   UNL     1       2.236   6.780   0.232  1.00  0.00    -0.149 S 
ATOM     34  C   UNL     1       2.510   6.022   2.550  1.00  0.00     0.015 A 
ATOM     35  C   UNL     1       2.305   8.093   1.439  1.00  0.00     0.065 A 
ATOM     36  C   UNL     1       2.458   7.402   2.596  1.00  0.00     0.012 A 
ENDBRANCH  14  32
TORSDOF 4
