REMARK SMILES O=C(c1cn(-c2ccc(Br)cc2)nn1)N1CC=C(c2c[nH]c3ncccc23)CC1
REMARK SMILES IDX 2 1 1 2 15 3 18 4 28 5 17 6 29 7 16 8 19 9 25 10 24 11 26 12
REMARK SMILES IDX 23 13 27 14 22 15 21 16 20 17 3 19 14 20 4 21 13 22 5 23
REMARK SMILES IDX 6 24 12 25 7 26 11 27 8 28 9 29 10 30
REMARK H PARENT 21 18
REMARK Flexibility Score: inf
ROOT
ATOM      1  C   UNL     1       2.234   7.107   0.425  1.00  0.00     0.276 C 
ATOM      2  O   UNL     1       2.614   7.554   1.490  1.00  0.00    -0.267 OA
ENDROOT
BRANCH   1   3
ATOM      3  N   UNL     1       2.392   5.797   0.149  1.00  0.00    -0.333 N 
ATOM      4  C   UNL     1       1.361   3.281   0.435  1.00  0.00    -0.039 C 
ATOM      5  C   UNL     1       2.169   3.839   1.569  1.00  0.00     0.057 C 
ATOM      6  C   UNL     1       1.198   3.877  -0.723  1.00  0.00    -0.001 C 
ATOM      7  C   UNL     1       3.140   4.908   1.054  1.00  0.00     0.125 C 
ATOM      8  C   UNL     1       1.825   5.199  -1.069  1.00  0.00     0.147 C 
BRANCH   4   9
ATOM      9  C   UNL     1       0.701   1.976   0.637  1.00  0.00     0.004 A 
ATOM     10  C   UNL     1      -3.075   1.980   1.228  1.00  0.00     0.021 A 
ATOM     11  C   UNL     1      -3.155   0.601   1.344  1.00  0.00     0.113 A 
ATOM     12  C   UNL     1      -1.846   2.571   0.996  1.00  0.00     0.014 A 
ATOM     13  N   UNL     1      -2.088  -0.162   1.234  1.00  0.00    -0.239 NA
ATOM     14  C   UNL     1      -0.732   1.742   0.879  1.00  0.00     0.026 A 
ATOM     15  C   UNL     1      -0.885   0.350   1.007  1.00  0.00     0.137 A 
ATOM     16  N   UNL     1       0.360  -0.214   0.854  1.00  0.00    -0.346 N 
ATOM     17  C   UNL     1       1.296   0.755   0.635  1.00  0.00     0.093 A 
ATOM     18  H   UNL     1       0.558  -1.224   0.899  1.00  0.00     0.167 HD
ENDBRANCH   4   9
ENDBRANCH   1   3
BRANCH   1  19
ATOM     19  C   UNL     1       1.599   7.998  -0.564  1.00  0.00     0.171 A 
ATOM     20  N   UNL     1       1.249   7.659  -1.817  1.00  0.00    -0.125 NA
ATOM     21  C   UNL     1       1.263   9.307  -0.361  1.00  0.00     0.151 A 
ATOM     22  N   UNL     1       0.721   8.674  -2.408  1.00  0.00    -0.062 NA
ATOM     23  N   UNL     1       0.714   9.752  -1.512  1.00  0.00    -0.220 N 
BRANCH  23  24
ATOM     24  C   UNL     1       0.225  11.043  -1.760  1.00  0.00     0.066 A 
ATOM     25  C   UNL     1      -0.320  11.353  -2.998  1.00  0.00     0.029 A 
ATOM     26  C   UNL     1       0.281  12.011  -0.767  1.00  0.00     0.029 A 
ATOM     27  C   UNL     1      -0.802  12.625  -3.241  1.00  0.00     0.018 A 
ATOM     28  C   UNL     1      -0.197  13.283  -1.016  1.00  0.00     0.018 A 
ATOM     29  C   UNL     1      -0.740  13.589  -2.251  1.00  0.00     0.018 A 
ATOM     30  Br  UNL     1      -1.401  15.329  -2.586  1.00  0.00    -0.051 Br
ENDBRANCH  23  24
ENDBRANCH   1  19
TORSDOF 4
