REMARK SMILES CC1(C)CC(=O)C2=C(C1)c1c(ccc3ccccc13)N[C@@H]2c1ccc(-c2ccc(O)c(C(=O)[O-])c2)o1
REMARK SMILES IDX 26 1 27 2 28 3 29 4 31 5 35 6 25 7 22 8 36 9 23 10 24 11
REMARK SMILES IDX 21 12 1 13 2 14 4 15 9 16 3 17 5 18 8 19 7 20 6 21 10 22
REMARK SMILES IDX 11 23 19 24 20 25 12 26 14 27 18 28 13 30 15 31 17 32 16 33
REMARK SMILES IDX 32 34 33 35 34 36 30 37
REMARK H PARENT 20 29 30 38
REMARK Flexibility Score: inf
ROOT
ATOM      1  C   UNL     1      -1.565   4.393   0.038  1.00  0.00     0.018 A 
ATOM      2  C   UNL     1      -2.958   4.269   0.049  1.00  0.00     0.016 A 
ATOM      3  C   UNL     1      -3.756   5.392   0.062  1.00  0.00     0.047 A 
ATOM      4  C   UNL     1      -3.183   6.657   0.062  1.00  0.00     0.124 A 
ATOM      5  C   UNL     1      -1.787   6.794   0.050  1.00  0.00     0.040 A 
ATOM      6  C   UNL     1      -0.980   5.655   0.044  1.00  0.00     0.025 A 
ENDROOT
BRANCH   1   7
ATOM      7  C   UNL     1      -0.715   3.184   0.025  1.00  0.00     0.134 A 
ATOM      8  C   UNL     1       1.060   1.891   0.002  1.00  0.00     0.131 A 
ATOM      9  O   UNL     1       0.631   3.165   0.012  1.00  0.00    -0.459 OA
ATOM     10  C   UNL     1      -0.013   1.076   0.008  1.00  0.00     0.049 A 
ATOM     11  C   UNL     1      -1.157   1.899   0.017  1.00  0.00     0.051 A 
BRANCH   8  12
ATOM     12  C   UNL     1       2.500   1.449  -0.013  1.00  0.00     0.180 C 
ATOM     13  C   UNL     1       5.836   0.833   2.853  1.00  0.00     0.012 C 
ATOM     14  C   UNL     1       4.682   1.366   3.702  1.00  0.00    -0.024 C 
ATOM     15  C   UNL     1       3.486   0.416   3.619  1.00  0.00     0.087 C 
ATOM     16  C   UNL     1       4.254   2.746   3.202  1.00  0.00     0.043 C 
ATOM     17  C   UNL     1       5.137   1.478   5.162  1.00  0.00     0.012 C 
ATOM     18  C   UNL     1       2.951   0.413   2.214  1.00  0.00     0.162 C 
ATOM     19  C   UNL     1       3.700   2.671   1.805  1.00  0.00    -0.028 C 
ATOM     20  C   UNL     1       3.076   1.534   1.381  1.00  0.00     0.029 C 
ATOM     21  O   UNL     1       2.403  -0.587   1.792  1.00  0.00    -0.294 OA
ATOM     22  C   UNL     1       3.811   3.782   0.932  1.00  0.00     0.009 A 
ATOM     23  C   UNL     1       3.604   3.588  -0.445  1.00  0.00     0.043 A 
ATOM     24  C   UNL     1       4.117   5.135   1.395  1.00  0.00    -0.009 A 
ATOM     25  N   UNL     1       3.273   2.320  -0.903  1.00  0.00    -0.371 N 
ATOM     26  C   UNL     1       3.733   4.641  -1.351  1.00  0.00     0.027 A 
ATOM     27  C   UNL     1       4.301   6.157   0.425  1.00  0.00    -0.018 A 
ATOM     28  C   UNL     1       4.213   5.481   2.744  1.00  0.00     0.009 A 
ATOM     29  H   UNL     1       3.561   2.002  -1.840  1.00  0.00     0.161 HD
ATOM     30  C   UNL     1       4.076   5.886  -0.939  1.00  0.00     0.011 A 
ATOM     31  C   UNL     1       4.698   7.442   0.830  1.00  0.00     0.009 A 
ATOM     32  C   UNL     1       4.603   6.739   3.110  1.00  0.00     0.001 A 
ATOM     33  C   UNL     1       4.852   7.718   2.154  1.00  0.00     0.001 A 
ENDBRANCH   8  12
ENDBRANCH   1   7
BRANCH   5  34
ATOM     34  C   UNL     1      -1.175   8.135   0.050  1.00  0.00     0.075 C 
ATOM     35  O   UNL     1      -1.880   9.124   0.061  1.00  0.00    -0.545 OA
ATOM     36  O   UNL     1       0.166   8.264   0.039  1.00  0.00    -0.545 OA
ENDBRANCH   5  34
BRANCH   4  37
ATOM     37  O   UNL     1      -3.972   7.759   0.074  1.00  0.00    -0.507 OA
ATOM     38  H   UNL     1      -4.544   7.654   0.875  1.00  0.00     0.293 HD
ENDBRANCH   4  37
TORSDOF 4
