REMARK SMILES c1cn(-c2ccc3c(-c4cc5cc(C[NH+]6CCCCC6)ccc5[nH]4)n[nH]c3c2)nn1
REMARK SMILES IDX 21 1 22 2 23 3 11 4 12 5 13 6 10 7 9 8 24 9 14 11 15 12
REMARK SMILES IDX 16 13 20 14 17 16 19 17 18 18 8 19 25 20 7 21 26 22 27 23
REMARK SMILES IDX 6 24 28 26 5 27 4 28 3 29 29 30 2 31 30 32 1 33
REMARK H PARENT 24 10 15 15 26 25
REMARK Flexibility Score: inf
ROOT
ATOM      1  C   UNL     1       9.239   0.942  -0.547  1.00  0.00     0.012 A 
ATOM      2  C   UNL     1       7.943   1.235  -0.915  1.00  0.00     0.027 A 
ATOM      3  C   UNL     1       6.903   0.413  -0.495  1.00  0.00     0.046 A 
ATOM      4  C   UNL     1       7.191  -0.711   0.303  1.00  0.00     0.001 A 
ATOM      5  C   UNL     1       8.513  -0.989   0.663  1.00  0.00     0.020 A 
ATOM      6  C   UNL     1       9.519  -0.167   0.240  1.00  0.00     0.007 A 
ATOM      7  C   UNL     1       5.910  -1.361   0.574  1.00  0.00     0.038 A 
ATOM      8  C   UNL     1       4.954  -0.626  -0.049  1.00  0.00     0.068 A 
ATOM      9  N   UNL     1       5.540   0.437  -0.698  1.00  0.00    -0.353 N 
ATOM     10  H   UNL     1       5.036   1.144  -1.252  1.00  0.00     0.167 HD
ENDROOT
BRANCH   6  11
ATOM     11  C   UNL     1      10.943  -0.467   0.630  1.00  0.00     0.299 C 
BRANCH  11  12
ATOM     12  N   UNL     1      11.235   0.199   1.916  1.00  0.00    -0.331 N 
ATOM     13  C   UNL     1      11.232   1.667   1.737  1.00  0.00     0.262 C 
ATOM     14  C   UNL     1      12.547  -0.248   2.430  1.00  0.00     0.262 C 
ATOM     15  H   UNL     1      10.506  -0.055   2.598  1.00  0.00     0.348 HD
ATOM     16  C   UNL     1      11.418   2.334   3.102  1.00  0.00     0.062 C 
ATOM     17  C   UNL     1      12.772   0.363   3.815  1.00  0.00     0.062 C 
ATOM     18  C   UNL     1      12.754   1.890   3.704  1.00  0.00     0.012 C 
ENDBRANCH  11  12
ENDBRANCH   6  11
BRANCH   8  19
ATOM     19  C   UNL     1       3.508  -0.924  -0.037  1.00  0.00     0.116 A 
ATOM     20  N   UNL     1       2.962  -2.118  -0.038  1.00  0.00    -0.173 NA
ATOM     21  C   UNL     1       2.419   0.060  -0.021  1.00  0.00     0.029 A 
ATOM     22  N   UNL     1       1.568  -2.004  -0.024  1.00  0.00    -0.277 N 
ATOM     23  C   UNL     1       1.221  -0.677  -0.013  1.00  0.00     0.068 A 
ATOM     24  C   UNL     1       2.378   1.457  -0.013  1.00  0.00     0.015 A 
ATOM     25  H   UNL     1       0.906  -2.793  -0.022  1.00  0.00     0.190 HD
ATOM     26  C   UNL     1       0.002  -0.004   0.002  1.00  0.00     0.056 A 
ATOM     27  C   UNL     1       1.176   2.102   0.002  1.00  0.00     0.029 A 
ATOM     28  C   UNL     1      -0.017   1.378   0.010  1.00  0.00     0.068 A 
BRANCH  28  29
ATOM     29  N   UNL     1      -1.243   2.057   0.019  1.00  0.00    -0.221 N 
ATOM     30  N   UNL     1      -2.409   1.512   0.016  1.00  0.00    -0.062 NA
ATOM     31  C   UNL     1      -1.408   3.408   0.027  1.00  0.00     0.137 A 
ATOM     32  N   UNL     1      -3.324   2.416   0.030  1.00  0.00    -0.139 NA
ATOM     33  C   UNL     1      -2.745   3.622   0.034  1.00  0.00     0.157 A 
ENDBRANCH  28  29
ENDBRANCH   8  19
TORSDOF 4
