REMARK SMILES CCOc1cccc2c1O[C@]1(C)[C@H](C(=O)Nc3ccc(C)cc3C)[C@H]2NC(=S)N1CCc1ccccc1
REMARK SMILES IDX 4 1 5 2 6 3 7 4 8 5 9 6 10 7 11 8 13 9 25 10 26 11 27 12
REMARK SMILES IDX 28 13 29 14 12 15 3 17 2 18 1 19 14 20 15 21 16 22 17 24
REMARK SMILES IDX 23 25 18 26 22 27 24 28 19 29 20 30 21 31 30 32 31 33 32 34
REMARK SMILES IDX 37 35 33 36 36 37 34 38 35 39
REMARK H PARENT 26 16 16 23
REMARK Flexibility Score: inf
ROOT
ATOM      1  C   UNL     1      -4.253   2.199  -1.560  1.00  0.00     0.161 A 
ATOM      2  C   UNL     1      -5.427   2.692  -1.016  1.00  0.00     0.050 A 
ATOM      3  C   UNL     1      -6.160   1.918  -0.137  1.00  0.00     0.004 A 
ATOM      4  C   UNL     1      -5.720   0.653   0.202  1.00  0.00     0.010 A 
ATOM      5  C   UNL     1      -4.546   0.156  -0.337  1.00  0.00     0.021 A 
ATOM      6  C   UNL     1      -3.809   0.920  -1.221  1.00  0.00     0.169 A 
ATOM      7  O   UNL     1      -2.641   0.460  -1.762  1.00  0.00    -0.463 OA
ATOM      8  C   UNL     1      -2.059  -0.738  -1.254  1.00  0.00     0.196 C 
ATOM      9  C   UNL     1      -3.175  -1.772  -1.051  1.00  0.00     0.171 C 
ATOM     10  C   UNL     1      -4.089  -1.230   0.060  1.00  0.00     0.134 C 
ATOM     11  N   UNL     1      -3.278  -1.110   1.283  1.00  0.00    -0.354 N 
ATOM     12  C   UNL     1      -1.994  -0.723   1.196  1.00  0.00     0.172 C 
ATOM     13  S   UNL     1      -1.097  -0.510   2.639  1.00  0.00    -0.041 S 
ATOM     14  N   UNL     1      -1.391  -0.491   0.021  1.00  0.00    -0.310 N 
ATOM     15  C   UNL     1      -1.044  -1.276  -2.264  1.00  0.00     0.083 C 
ATOM     16  H   UNL     1      -3.693  -1.322   2.201  1.00  0.00     0.163 HD
ENDROOT
BRANCH   1  17
ATOM     17  O   UNL     1      -3.532   2.962  -2.424  1.00  0.00    -0.490 OA
BRANCH  17  18
ATOM     18  C   UNL     1      -4.045   4.261  -2.726  1.00  0.00     0.226 C 
ATOM     19  C   UNL     1      -3.106   4.964  -3.708  1.00  0.00     0.049 C 
ENDBRANCH  17  18
ENDBRANCH   1  17
BRANCH   9  20
ATOM     20  C   UNL     1      -3.958  -1.942  -2.327  1.00  0.00     0.236 C 
ATOM     21  O   UNL     1      -3.659  -1.300  -3.312  1.00  0.00    -0.274 OA
ATOM     22  N   UNL     1      -4.990  -2.808  -2.374  1.00  0.00    -0.325 N 
ATOM     23  H   UNL     1      -5.191  -3.414  -1.567  1.00  0.00     0.169 HD
BRANCH  22  24
ATOM     24  C   UNL     1      -5.789  -2.882  -3.521  1.00  0.00     0.044 A 
ATOM     25  C   UNL     1      -6.481  -4.050  -3.812  1.00  0.00    -0.027 A 
ATOM     26  C   UNL     1      -5.887  -1.789  -4.373  1.00  0.00     0.026 A 
ATOM     27  C   UNL     1      -7.274  -4.118  -4.941  1.00  0.00     0.009 A 
ATOM     28  C   UNL     1      -6.373  -5.240  -2.893  1.00  0.00     0.046 C 
ATOM     29  C   UNL     1      -6.676  -1.866  -5.503  1.00  0.00     0.005 A 
ATOM     30  C   UNL     1      -7.369  -3.029  -5.787  1.00  0.00    -0.051 A 
ATOM     31  C   UNL     1      -8.229  -3.109  -7.022  1.00  0.00     0.044 C 
ENDBRANCH  22  24
ENDBRANCH   9  20
BRANCH  14  32
ATOM     32  C   UNL     1      -0.017   0.019   0.015  1.00  0.00     0.128 C 
BRANCH  32  33
ATOM     33  C   UNL     1      -0.041   1.548   0.015  1.00  0.00     0.057 C 
BRANCH  33  34
ATOM     34  C   UNL     1       1.372   2.073   0.010  1.00  0.00    -0.046 A 
ATOM     35  C   UNL     1       2.015   2.313  -1.190  1.00  0.00     0.004 A 
ATOM     36  C   UNL     1       2.023   2.319   1.204  1.00  0.00     0.004 A 
ATOM     37  C   UNL     1       3.311   2.795  -1.195  1.00  0.00     0.000 A 
ATOM     38  C   UNL     1       3.321   2.795   1.199  1.00  0.00     0.000 A 
ATOM     39  C   UNL     1       3.964   3.035  -0.000  1.00  0.00     0.000 A 
ENDBRANCH  33  34
ENDBRANCH  32  33
ENDBRANCH  14  32
TORSDOF 7
