REMARK SMILES Cc1cc(=O)oc(C)c1C(=O)O[C@H](C)C(=O)NC(=O)N[C@H]1CCCC[C@@H]1C
REMARK SMILES IDX 13 1 14 2 12 3 10 4 11 5 9 6 1 7 2 8 3 9 7 10 4 11 6 12 8 13
REMARK SMILES IDX 5 14 15 15 16 16 17 17 18 18 19 20 20 21 21 23 26 24 22 25
REMARK SMILES IDX 25 26 27 27 23 28 24 29
REMARK H PARENT 17 19 20 22
REMARK Flexibility Score: inf
ROOT
ATOM      1  C   UNL     1      -6.209   1.118  -3.456  1.00  0.00     0.262 C 
ATOM      2  C   UNL     1      -6.030   0.119  -4.601  1.00  0.00     0.064 C 
ENDROOT
BRANCH   1   3
ATOM      3  O   UNL     1      -7.622   1.259  -3.153  1.00  0.00    -0.449 OA
BRANCH   3   4
ATOM      4  C   UNL     1      -8.299   2.214  -3.820  1.00  0.00     0.342 C 
ATOM      5  O   UNL     1      -7.724   2.911  -4.633  1.00  0.00    -0.246 OA
BRANCH   4   6
ATOM      6  C   UNL     1      -9.736   2.414  -3.563  1.00  0.00     0.101 A 
ATOM      7  C   UNL     1     -10.277   0.738  -5.396  1.00  0.00     0.045 C 
ATOM      8  C   UNL     1     -10.704   1.704  -4.321  1.00  0.00    -0.026 A 
ATOM      9  C   UNL     1     -12.022   1.911  -4.060  1.00  0.00     0.098 A 
ATOM     10  C   UNL     1     -10.151   3.287  -2.583  1.00  0.00     0.120 A 
ATOM     11  C   UNL     1     -12.392   2.820  -3.050  1.00  0.00     0.336 A 
ATOM     12  O   UNL     1     -11.454   3.478  -2.348  1.00  0.00    -0.427 OA
ATOM     13  C   UNL     1      -9.128   4.039  -1.771  1.00  0.00     0.089 C 
ATOM     14  O   UNL     1     -13.571   3.010  -2.810  1.00  0.00    -0.246 OA
ENDBRANCH   4   6
ENDBRANCH   3   4
ENDBRANCH   1   3
BRANCH   1  15
ATOM     15  C   UNL     1      -5.480   0.619  -2.236  1.00  0.00     0.268 C 
ATOM     16  O   UNL     1      -6.102   0.317  -1.240  1.00  0.00    -0.270 OA
ATOM     17  N   UNL     1      -4.137   0.509  -2.251  1.00  0.00    -0.275 N 
ATOM     18  C   UNL     1      -3.485   0.062  -1.159  1.00  0.00     0.321 C 
ATOM     19  H   UNL     1      -3.609   0.765  -3.097  1.00  0.00     0.174 HD
ATOM     20  O   UNL     1      -4.108  -0.241  -0.160  1.00  0.00    -0.248 OA
ATOM     21  N   UNL     1      -2.142  -0.048  -1.174  1.00  0.00    -0.335 N 
ATOM     22  H   UNL     1      -1.614   0.208  -2.020  1.00  0.00     0.165 HD
BRANCH  21  23
ATOM     23  C   UNL     1      -1.433  -0.534   0.013  1.00  0.00     0.086 C 
ATOM     24  C   UNL     1       0.002  -0.004   0.002  1.00  0.00     0.008 C 
ATOM     25  C   UNL     1      -1.413  -2.063   0.004  1.00  0.00     0.025 C 
ATOM     26  C   UNL     1       0.742  -0.511   1.242  1.00  0.00     0.005 C 
ATOM     27  C   UNL     1      -0.019   1.526   0.010  1.00  0.00     0.010 C 
ATOM     28  C   UNL     1      -0.673  -2.570   1.244  1.00  0.00     0.002 C 
ATOM     29  C   UNL     1       0.763  -2.041   1.233  1.00  0.00     0.000 C 
ENDBRANCH  21  23
ENDBRANCH   1  15
TORSDOF 5
