REMARK SMILES COc1ccc(-c2nc3ccc(Cl)cn3c2[C@@H]2C(C#N)=C(N)NC(SCc3ccco3)=C2C#N)cc1
REMARK SMILES IDX 17 1 18 2 21 3 23 4 24 5 32 6 16 8 7 9 8 10 9 11 15 12 10 13
REMARK SMILES IDX 14 14 11 15 12 16 13 17 6 18 3 19 36 20 4 21 35 22 5 23 2 24
REMARK SMILES IDX 1 25 33 26 34 27 19 28 20 29 25 30 26 31 27 32 31 33 28 34
REMARK SMILES IDX 30 35 29 36 22 37
REMARK H PARENT 23 7 22 38 22 39
REMARK Flexibility Score: inf
ROOT
ATOM      1  C   UNL     1      -0.916   6.220   0.155  1.00  0.00     0.127 C 
ATOM      2  C   UNL     1      -1.598   6.145   1.491  1.00  0.00     0.084 C 
ATOM      3  C   UNL     1      -2.842   5.617   1.626  1.00  0.00     0.116 C 
ATOM      4  N   UNL     1      -3.525   5.139   0.532  1.00  0.00    -0.335 N 
ATOM      5  C   UNL     1      -3.136   5.503  -0.737  1.00  0.00     0.089 C 
ATOM      6  C   UNL     1      -1.902   6.027  -0.961  1.00  0.00     0.074 C 
ATOM      7  H   UNL     1      -4.328   4.508   0.663  1.00  0.00     0.169 HD
ENDROOT
BRANCH   1   8
ATOM      8  C   UNL     1       0.138   5.146   0.076  1.00  0.00     0.064 A 
ATOM      9  C   UNL     1       1.482   5.338  -0.044  1.00  0.00     0.094 A 
ATOM     10  N   UNL     1       2.077   4.135  -0.082  1.00  0.00    -0.228 NA
ATOM     11  C   UNL     1       1.153   3.190   0.011  1.00  0.00     0.137 A 
ATOM     12  N   UNL     1      -0.073   3.796   0.112  1.00  0.00    -0.301 N 
ATOM     13  C   UNL     1       1.238   1.783   0.022  1.00  0.00     0.049 A 
ATOM     14  C   UNL     1      -1.209   3.045   0.221  1.00  0.00     0.113 A 
ATOM     15  C   UNL     1       0.100   1.047   0.131  1.00  0.00     0.026 A 
ATOM     16  C   UNL     1      -1.143   1.696   0.227  1.00  0.00     0.057 A 
ATOM     17  Cl  UNL     1      -2.599   0.760   0.360  1.00  0.00    -0.083 Cl
BRANCH   9  18
ATOM     18  C   UNL     1       2.169   6.651  -0.121  1.00  0.00     0.002 A 
ATOM     19  C   UNL     1       3.452   9.101  -0.266  1.00  0.00     0.118 A 
ATOM     20  C   UNL     1       2.279   8.890  -0.979  1.00  0.00     0.047 A 
ATOM     21  C   UNL     1       3.982   8.087   0.519  1.00  0.00     0.047 A 
ATOM     22  C   UNL     1       1.641   7.669  -0.913  1.00  0.00     0.014 A 
ATOM     23  C   UNL     1       3.346   6.866   0.593  1.00  0.00     0.014 A 
BRANCH  19  24
ATOM     24  O   UNL     1       4.081  10.304  -0.337  1.00  0.00    -0.497 OA
ATOM     25  C   UNL     1       3.481  11.303  -1.164  1.00  0.00     0.278 C 
ENDBRANCH  19  24
ENDBRANCH   9  18
ENDBRANCH   1   8
BRANCH   6  26
ATOM     26  C   UNL     1      -1.533   6.404  -2.293  1.00  0.00     0.099 C 
ATOM     27  N   UNL     1      -1.241   6.703  -3.349  1.00  0.00    -0.193 NA
ENDBRANCH   6  26
BRANCH   2  28
ATOM     28  C   UNL     1      -0.920   6.642   2.651  1.00  0.00     0.100 C 
ATOM     29  N   UNL     1      -0.383   7.037   3.570  1.00  0.00    -0.193 NA
ENDBRANCH   2  28
BRANCH   5  30
ATOM     30  S   UNL     1      -4.250   5.289  -2.085  1.00  0.00    -0.099 SA
BRANCH  30  31
ATOM     31  C   UNL     1      -5.670   4.584  -1.211  1.00  0.00     0.151 C 
BRANCH  31  32
ATOM     32  C   UNL     1      -6.779   4.310  -2.193  1.00  0.00     0.114 A 
ATOM     33  O   UNL     1      -7.756   5.167  -2.534  1.00  0.00    -0.468 OA
ATOM     34  C   UNL     1      -6.963   3.164  -2.873  1.00  0.00     0.046 A 
ATOM     35  C   UNL     1      -8.565   4.588  -3.436  1.00  0.00     0.195 A 
ATOM     36  C   UNL     1      -8.114   3.343  -3.674  1.00  0.00     0.042 A 
ENDBRANCH  31  32
ENDBRANCH  30  31
ENDBRANCH   5  30
BRANCH   3  37
ATOM     37  N   UNL     1      -3.424   5.560   2.869  1.00  0.00    -0.384 N 
ATOM     38  H   UNL     1      -2.921   5.915   3.695  1.00  0.00     0.158 HD
ATOM     39  H   UNL     1      -4.368   5.160   2.975  1.00  0.00     0.158 HD
ENDBRANCH   3  37
TORSDOF 9
