REMARK SMILES CC1(C)CC(=O)C2=C(C1)Nc1ccccc1N(CC(=O)NCCc1ccc(O)cc1)[C@H]2c1ccc(Cl)cc1
REMARK SMILES IDX 19 1 20 2 21 3 18 5 17 6 16 7 11 8 12 9 15 10 13 11 14 12
REMARK SMILES IDX 10 13 8 15 1 16 2 17 4 18 9 19 3 20 5 21 7 22 6 23 31 25
REMARK SMILES IDX 32 27 38 28 33 29 37 30 34 31 35 32 36 33 22 34 23 35 24 36
REMARK SMILES IDX 30 37 25 38 29 39 26 40 27 41 28 42
REMARK H PARENT 21 4 10 14 28 43
REMARK Flexibility Score: 90.00
ROOT
ATOM      1  C   UNL     1       6.510   6.731   0.071  1.00  0.00     0.239 C 
ATOM      2  O   UNL     1       5.498   7.399   0.092  1.00  0.00    -0.273 OA
ATOM      3  N   UNL     1       6.431   5.386   0.088  1.00  0.00    -0.354 N 
ATOM      4  H   UNL     1       7.290   4.819   0.070  1.00  0.00     0.163 HD
ENDROOT
BRANCH   1   5
ATOM      5  C   UNL     1       7.857   7.406   0.024  1.00  0.00     0.217 C 
BRANCH   5   6
ATOM      6  N   UNL     1       7.675   8.864   0.012  1.00  0.00    -0.349 N 
BRANCH   6   7
ATOM      7  C   UNL     1       7.125   9.306   1.209  1.00  0.00     0.062 A 
ATOM      8  C   UNL     1       6.560  10.562   1.276  1.00  0.00     0.062 A 
ATOM      9  C   UNL     1       6.030  11.041   2.463  1.00  0.00     0.028 A 
ATOM     10  C   UNL     1       7.143   8.496   2.339  1.00  0.00     0.028 A 
ATOM     11  C   UNL     1       6.056  10.235   3.589  1.00  0.00     0.002 A 
ATOM     12  C   UNL     1       6.607   8.968   3.523  1.00  0.00     0.002 A 
BRANCH   8  13
ATOM     13  N   UNL     1       6.532  11.313   0.103  1.00  0.00    -0.357 N 
ATOM     14  H   UNL     1       5.616  11.549  -0.305  1.00  0.00     0.166 HD
BRANCH  13  15
ATOM     15  C   UNL     1       7.651  11.752  -0.528  1.00  0.00     0.025 C 
ATOM     16  C   UNL     1       9.482  13.784   0.525  1.00  0.00     0.012 C 
ATOM     17  C   UNL     1       8.998  13.809  -0.926  1.00  0.00    -0.023 C 
ATOM     18  C   UNL     1       9.940  12.977  -1.803  1.00  0.00     0.087 C 
ATOM     19  C   UNL     1       7.605  13.187  -1.018  1.00  0.00     0.061 C 
ATOM     20  C   UNL     1       8.956  15.252  -1.435  1.00  0.00     0.012 C 
ATOM     21  C   UNL     1       9.883  11.548  -1.356  1.00  0.00     0.163 C 
ATOM     22  C   UNL     1       8.742  10.991  -0.731  1.00  0.00     0.041 CG0
ATOM     23  O   UNL     1      10.854  10.839  -1.537  1.00  0.00    -0.294 OA
ATOM     24  G   UNL     1       8.897   9.535  -0.362  1.00  0.00     0.000 G0
ENDBRANCH  13  15
ENDBRANCH   8  13
ENDBRANCH   6   7
BRANCH   6  25
ATOM     25  C   UNL     1       8.897   9.535  -0.362  1.00  0.00     0.149 CG0
ATOM     26  G   UNL     1       8.742  10.991  -0.731  1.00  0.00     0.000 G0
BRANCH  25  27
ATOM     27  C   UNL     1       9.496   8.809  -1.539  1.00  0.00    -0.021 A 
ATOM     28  C   UNL     1      10.780   8.303  -1.458  1.00  0.00     0.008 A 
ATOM     29  C   UNL     1       8.760   8.644  -2.697  1.00  0.00     0.008 A 
ATOM     30  C   UNL     1      11.331   7.637  -2.537  1.00  0.00     0.021 A 
ATOM     31  C   UNL     1       9.311   7.983  -3.779  1.00  0.00     0.021 A 
ATOM     32  C   UNL     1      10.596   7.476  -3.698  1.00  0.00     0.041 A 
ATOM     33  Cl  UNL     1      11.286   6.639  -5.053  1.00  0.00    -0.084 Cl
ENDBRANCH  25  27
ENDBRANCH   6  25
ENDBRANCH   5   6
ENDBRANCH   1   5
BRANCH   3  34
ATOM     34  C   UNL     1       5.122   4.730   0.134  1.00  0.00     0.120 C 
BRANCH  34  35
ATOM     35  C   UNL     1       5.312   3.212   0.146  1.00  0.00     0.057 C 
BRANCH  35  36
ATOM     36  C   UNL     1       3.965   2.538   0.193  1.00  0.00    -0.046 A 
ATOM     37  C   UNL     1       3.383   2.242   1.412  1.00  0.00     0.007 A 
ATOM     38  C   UNL     1       3.313   2.215  -0.983  1.00  0.00     0.007 A 
ATOM     39  C   UNL     1       2.146   1.629   1.458  1.00  0.00     0.046 A 
ATOM     40  C   UNL     1       2.078   1.597  -0.942  1.00  0.00     0.046 A 
ATOM     41  C   UNL     1       1.492   1.299   0.280  1.00  0.00     0.115 A 
BRANCH  41  42
ATOM     42  O   UNL     1       0.278   0.691   0.322  1.00  0.00    -0.508 OA
ATOM     43  H   UNL     1       0.392  -0.141  -0.202  1.00  0.00     0.293 HD
ENDBRANCH  41  42
ENDBRANCH  35  36
ENDBRANCH  34  35
ENDBRANCH   3  34
TORSDOF 7
