REMARK SMILES COc1ccc(OC)c2nc(N3CCOCC3)c(C[NH2+][C@H](C)c3cccc4ccccc34)cc12
REMARK SMILES IDX 20 1 21 4 22 5 23 6 32 7 24 8 27 9 31 10 25 11 26 12 28 13
REMARK SMILES IDX 30 14 29 15 19 16 18 17 11 18 33 19 10 20 34 21 9 22 3 23
REMARK SMILES IDX 6 24 4 25 5 26 12 27 17 28 13 29 16 30 14 31 15 32 2 33 1 34
REMARK SMILES IDX 7 35 8 36
REMARK H PARENT 20 2 20 3
REMARK Flexibility Score: inf
ROOT
ATOM      1  N   UNL     1      -2.777  -0.222   0.794  1.00  0.00    -0.336 N 
ATOM      2  H   UNL     1      -2.056  -0.102   1.519  1.00  0.00     0.347 HD
ATOM      3  H   UNL     1      -2.373  -0.753   0.009  1.00  0.00     0.347 HD
ENDROOT
BRANCH   1   4
ATOM      4  C   UNL     1      -3.209   1.098   0.316  1.00  0.00     0.211 C 
ATOM      5  C   UNL     1      -3.749   0.972  -1.110  1.00  0.00     0.081 C 
BRANCH   4   6
ATOM      6  C   UNL     1      -2.037   2.045   0.327  1.00  0.00     0.017 A 
ATOM      7  C   UNL     1      -2.248   3.429   0.436  1.00  0.00    -0.009 A 
ATOM      8  C   UNL     1      -0.767   1.562   0.237  1.00  0.00     0.010 A 
ATOM      9  C   UNL     1      -1.133   4.305   0.440  1.00  0.00    -0.018 A 
ATOM     10  C   UNL     1      -3.544   3.964   0.536  1.00  0.00     0.009 A 
ATOM     11  C   UNL     1       0.329   2.423   0.241  1.00  0.00     0.001 A 
ATOM     12  C   UNL     1       0.162   3.770   0.340  1.00  0.00     0.009 A 
ATOM     13  C   UNL     1      -1.345   5.690   0.543  1.00  0.00     0.009 A 
ATOM     14  C   UNL     1      -3.711   5.311   0.635  1.00  0.00     0.001 A 
ATOM     15  C   UNL     1      -2.615   6.172   0.639  1.00  0.00     0.001 A 
ENDBRANCH   4   6
ENDBRANCH   1   4
BRANCH   1  16
ATOM     16  C   UNL     1      -3.907  -0.974   1.355  1.00  0.00     0.301 C 
BRANCH  16  17
ATOM     17  C   UNL     1      -3.452  -2.363   1.725  1.00  0.00     0.049 A 
ATOM     18  C   UNL     1      -2.732  -2.574   2.908  1.00  0.00     0.138 A 
ATOM     19  C   UNL     1      -3.746  -3.417   0.912  1.00  0.00     0.027 A 
ATOM     20  N   UNL     1      -2.320  -3.775   3.259  1.00  0.00    -0.226 NA
ATOM     21  C   UNL     1      -3.298  -4.697   1.290  1.00  0.00     0.047 A 
ATOM     22  C   UNL     1      -2.574  -4.846   2.498  1.00  0.00     0.118 A 
ATOM     23  C   UNL     1      -3.561  -5.828   0.493  1.00  0.00     0.128 A 
ATOM     24  C   UNL     1      -2.130  -6.127   2.880  1.00  0.00     0.145 A 
ATOM     25  C   UNL     1      -3.111  -7.064   0.900  1.00  0.00     0.051 A 
ATOM     26  C   UNL     1      -2.400  -7.206   2.088  1.00  0.00     0.052 A 
BRANCH  18  27
ATOM     27  N   UNL     1      -2.445  -1.492   3.730  1.00  0.00    -0.352 N 
ATOM     28  C   UNL     1      -3.132  -1.618   5.024  1.00  0.00     0.146 C 
ATOM     29  C   UNL     1      -0.995  -1.346   3.921  1.00  0.00     0.146 C 
ATOM     30  C   UNL     1      -2.837  -0.379   5.873  1.00  0.00     0.181 C 
ATOM     31  C   UNL     1      -0.722  -0.109   4.782  1.00  0.00     0.181 C 
ATOM     32  O   UNL     1      -1.422  -0.234   6.023  1.00  0.00    -0.378 OA
ENDBRANCH  18  27
BRANCH  23  33
ATOM     33  O   UNL     1      -4.255  -5.700  -0.668  1.00  0.00    -0.496 OA
ATOM     34  C   UNL     1      -4.483  -6.892  -1.422  1.00  0.00     0.278 C 
ENDBRANCH  23  33
BRANCH  24  35
ATOM     35  O   UNL     1      -1.434  -6.289   4.037  1.00  0.00    -0.494 OA
ATOM     36  C   UNL     1      -1.015  -7.616   4.361  1.00  0.00     0.278 C 
ENDBRANCH  24  35
ENDBRANCH  16  17
ENDBRANCH   1  16
TORSDOF 7
