REMARK SMILES Cc1ccc(C(=O)NNC(=O)Cc2csc(N3CCOCC3)n2)s1
REMARK SMILES IDX 9 1 10 2 11 3 8 5 6 6 7 7 5 9 1 10 2 11 24 12 3 13 4 14
REMARK SMILES IDX 12 15 13 16 23 17 14 18 16 19 15 20 17 21 22 22 18 23 21 24
REMARK SMILES IDX 19 25 20 26
REMARK H PARENT 9 4 8 8
REMARK Flexibility Score: inf
ROOT
ATOM      1  N   UNL     1      -2.072   4.492   0.037  1.00  0.00    -0.267 N 
ATOM      2  C   UNL     1      -1.878   5.826   0.043  1.00  0.00     0.244 C 
ATOM      3  O   UNL     1      -0.751   6.274   0.040  1.00  0.00    -0.273 OA
ATOM      4  H   UNL     1      -3.029   4.111   0.040  1.00  0.00     0.191 HD
ENDROOT
BRANCH   1   5
ATOM      5  N   UNL     1      -0.973   3.624   0.027  1.00  0.00    -0.263 N 
ATOM      6  C   UNL     1      -1.167   2.290   0.020  1.00  0.00     0.279 C 
ATOM      7  O   UNL     1      -2.298   1.840   0.024  1.00  0.00    -0.266 OA
ATOM      8  H   UNL     1      -0.016   4.005   0.024  1.00  0.00     0.191 HD
BRANCH   6   9
ATOM      9  C   UNL     1      -0.017   1.382   0.010  1.00  0.00     0.094 A 
ATOM     10  C   UNL     1       3.793  -0.288  -0.035  1.00  0.00     0.056 C 
ATOM     11  C   UNL     1       2.353   0.156  -0.020  1.00  0.00     0.002 A 
ATOM     12  S   UNL     1       1.724   1.772  -0.005  1.00  0.00    -0.135 S 
ATOM     13  C   UNL     1       1.232  -0.613  -0.013  1.00  0.00     0.016 A 
ATOM     14  C   UNL     1       0.002  -0.004   0.002  1.00  0.00     0.026 A 
ENDBRANCH   6   9
ENDBRANCH   1   5
BRANCH   2  15
ATOM     15  C   UNL     1      -3.060   6.760   0.054  1.00  0.00     0.159 C 
BRANCH  15  16
ATOM     16  C   UNL     1      -2.574   8.186   0.059  1.00  0.00     0.063 A 
ATOM     17  N   UNL     1      -2.449   8.852   1.192  1.00  0.00    -0.225 NA
ATOM     18  C   UNL     1      -2.261   8.815  -1.098  1.00  0.00     0.093 A 
ATOM     19  C   UNL     1      -2.018  10.100   1.206  1.00  0.00     0.185 A 
ATOM     20  S   UNL     1      -1.766  10.418  -0.482  1.00  0.00    -0.105 S 
BRANCH  19  21
ATOM     21  N   UNL     1      -1.823  10.941   2.290  1.00  0.00    -0.343 N 
ATOM     22  C   UNL     1      -1.337  12.258   1.853  1.00  0.00     0.147 C 
ATOM     23  C   UNL     1      -3.055  11.076   3.080  1.00  0.00     0.147 C 
ATOM     24  C   UNL     1      -1.079  13.134   3.082  1.00  0.00     0.181 C 
ATOM     25  C   UNL     1      -2.780  11.964   4.297  1.00  0.00     0.181 C 
ATOM     26  O   UNL     1      -2.279  13.229   3.855  1.00  0.00    -0.378 OA
ENDBRANCH  19  21
ENDBRANCH  15  16
ENDBRANCH   2  15
TORSDOF 5
