REMARK SMILES O=C(Nc1cc(O)n(-c2ccccc2)n1)c1cc2ccccc2n1C[C@H]1CCCC[N@@H+]1Cc1cccs1
REMARK SMILES IDX 16 1 17 2 18 3 19 4 20 5 21 6 22 7 23 8 24 9 2 10 3 11 1 13
REMARK SMILES IDX 4 14 8 15 15 16 6 17 5 18 9 19 12 20 13 21 11 22 14 23 10 24
REMARK SMILES IDX 7 25 25 27 26 28 31 29 27 30 30 31 28 33 29 34 32 35 33 36
REMARK SMILES IDX 37 37 34 38 36 39 35 40
REMARK H PARENT 3 12 7 26 31 32
REMARK Flexibility Score: inf
ROOT
ATOM      1  C   UNL     1      -1.109  -2.929   0.646  1.00  0.00     0.108 A 
ATOM      2  C   UNL     1      -0.910  -4.101  -0.011  1.00  0.00     0.042 A 
ATOM      3  C   UNL     1      -1.268  -3.902  -1.366  1.00  0.00     0.000 A 
ATOM      4  C   UNL     1      -1.272  -4.735  -2.492  1.00  0.00     0.010 A 
ATOM      5  C   UNL     1      -1.697  -4.249  -3.694  1.00  0.00     0.001 A 
ATOM      6  C   UNL     1      -2.114  -2.929  -3.816  1.00  0.00     0.002 A 
ATOM      7  C   UNL     1      -2.114  -2.090  -2.725  1.00  0.00     0.027 A 
ATOM      8  C   UNL     1      -1.693  -2.565  -1.486  1.00  0.00     0.049 A 
ATOM      9  N   UNL     1      -1.582  -1.985  -0.244  1.00  0.00    -0.330 N 
ENDROOT
BRANCH   1  10
ATOM     10  C   UNL     1      -0.859  -2.700   2.077  1.00  0.00     0.273 C 
ATOM     11  N   UNL     1      -0.943  -1.455   2.586  1.00  0.00    -0.304 N 
ATOM     12  H   UNL     1      -1.248  -0.674   1.987  1.00  0.00     0.171 HD
ATOM     13  O   UNL     1      -0.576  -3.635   2.802  1.00  0.00    -0.267 OA
BRANCH  11  14
ATOM     14  C   UNL     1      -0.616  -1.223   3.927  1.00  0.00     0.159 A 
ATOM     15  N   UNL     1      -0.322  -0.266   5.886  1.00  0.00    -0.199 N 
ATOM     16  N   UNL     1      -0.759  -0.086   4.567  1.00  0.00    -0.147 NA
ATOM     17  C   UNL     1       0.100  -1.552   6.016  1.00  0.00     0.216 A 
ATOM     18  C   UNL     1      -0.072  -2.164   4.815  1.00  0.00     0.117 A 
BRANCH  15  19
ATOM     19  C   UNL     1      -0.315   0.710   6.892  1.00  0.00     0.069 A 
ATOM     20  C   UNL     1      -0.301   2.635   8.879  1.00  0.00     0.000 A 
ATOM     21  C   UNL     1      -0.559   1.315   9.199  1.00  0.00     0.002 A 
ATOM     22  C   UNL     1      -0.051   2.995   7.567  1.00  0.00     0.002 A 
ATOM     23  C   UNL     1      -0.572   0.352   8.209  1.00  0.00     0.028 A 
ATOM     24  C   UNL     1      -0.057   2.036   6.573  1.00  0.00     0.028 A 
ENDBRANCH  15  19
BRANCH  17  25
ATOM     25  O   UNL     1       0.601  -2.122   7.141  1.00  0.00    -0.493 OA
ATOM     26  H   UNL     1      -0.112  -1.943   7.804  1.00  0.00     0.295 HD
ENDBRANCH  17  25
ENDBRANCH  11  14
ENDBRANCH   1  10
BRANCH   9  27
ATOM     27  C   UNL     1      -1.917  -0.597   0.082  1.00  0.00     0.187 C 
BRANCH  27  28
ATOM     28  C   UNL     1      -0.640   0.246   0.099  1.00  0.00     0.204 C 
ATOM     29  N   UNL     1      -0.976   1.636   0.431  1.00  0.00    -0.327 N 
ATOM     30  C   UNL     1       0.023   0.195  -1.280  1.00  0.00     0.067 C 
ATOM     31  C   UNL     1       0.230   2.472   0.498  1.00  0.00     0.262 C 
ATOM     32  H   UNL     1      -1.571   2.005  -0.325  1.00  0.00     0.348 HD
ATOM     33  C   UNL     1       1.289   1.055  -1.264  1.00  0.00     0.012 C 
ATOM     34  C   UNL     1       0.919   2.487  -0.868  1.00  0.00     0.062 C 
BRANCH  29  35
ATOM     35  C   UNL     1      -1.738   1.709   1.685  1.00  0.00     0.310 C 
BRANCH  35  36
ATOM     36  C   UNL     1      -2.360   3.075   1.816  1.00  0.00     0.059 A 
ATOM     37  S   UNL     1      -1.655   4.572   2.486  1.00  0.00    -0.143 S 
ATOM     38  C   UNL     1      -3.603   3.485   1.460  1.00  0.00     0.021 A 
ATOM     39  C   UNL     1      -3.061   5.645   2.239  1.00  0.00     0.065 A 
ATOM     40  C   UNL     1      -3.962   4.802   1.678  1.00  0.00     0.012 A 
ENDBRANCH  35  36
ENDBRANCH  29  35
ENDBRANCH  27  28
ENDBRANCH   9  27
TORSDOF 8
