REMARK SMILES C[C@H](CC[C@H](O)[C@](C)(O)CO)[C@H]1CC[C@@]2(C)C3=CC[C@@H]4C(C)(C)[C@@H](O)CC[C@]4(C)C3=CC[C@]12C
REMARK SMILES IDX 4 1 3 2 2 3 1 4 12 5 33 6 13 7 15 8 32 9 34 10 14 11 17 12
REMARK SMILES IDX 16 13 31 14 30 15 18 16 28 17 19 18 20 19 27 20 29 21 21 22
REMARK SMILES IDX 26 23 24 24 22 25 23 26 25 27 5 29 7 30 8 31 10 32 11 33
REMARK SMILES IDX 9 35 6 37
REMARK H PARENT 25 28 11 34 9 36 6 38
REMARK Flexibility Score: inf
ROOT
ATOM      1  C   UNL     1       3.431  -0.277  -3.740  1.00  0.00     0.035 C 
ENDROOT
BRANCH   1   2
ATOM      2  C   UNL     1       3.377   1.068  -3.012  1.00  0.00     0.006 C 
BRANCH   2   3
ATOM      3  C   UNL     1       2.330   1.004  -1.898  1.00  0.00    -0.010 C 
ATOM      4  C   UNL     1       2.772  -0.011  -0.841  1.00  0.00     0.008 C 
BRANCH   3   5
ATOM      5  C   UNL     1       2.187   2.384  -1.252  1.00  0.00    -0.001 C 
ATOM      6  C   UNL     1       1.113   2.347  -0.167  1.00  0.00    -0.017 C 
ATOM      7  C   UNL     1       1.663   3.408  -2.290  1.00  0.00     0.005 C 
ATOM      8  C   UNL     1       0.589   3.808  -0.160  1.00  0.00    -0.002 C 
ATOM      9  C   UNL     1       1.555   1.995   1.232  1.00  0.00     0.035 C 
ATOM     10  C   UNL     1       0.005   1.383  -0.610  1.00  0.00     0.013 C 
ATOM     11  C   UNL     1       0.413   4.080  -1.659  1.00  0.00     0.012 C 
ATOM     12  C   UNL     1      -0.660   3.804   0.666  1.00  0.00    -0.042 C 
ATOM     13  C   UNL     1       1.612   4.787   0.430  1.00  0.00     0.017 C 
ATOM     14  C   UNL     1       0.407   2.238   2.191  1.00  0.00    -0.022 C 
ATOM     15  C   UNL     1      -0.622   3.031   1.930  1.00  0.00    -0.042 C 
ATOM     16  C   UNL     1      -1.738   4.455   0.308  1.00  0.00    -0.022 C 
ATOM     17  C   UNL     1      -1.788   3.154   2.891  1.00  0.00    -0.004 C 
ATOM     18  C   UNL     1      -2.989   4.504   1.128  1.00  0.00     0.032 C 
ATOM     19  C   UNL     1      -3.099   3.366   2.144  1.00  0.00     0.011 C 
ATOM     20  C   UNL     1      -1.508   4.328   3.830  1.00  0.00     0.014 C 
ATOM     21  C   UNL     1      -1.839   1.852   3.709  1.00  0.00     0.017 C 
ATOM     22  C   UNL     1      -4.279   3.673   3.065  1.00  0.00    -0.005 C 
ATOM     23  C   UNL     1      -2.655   4.485   4.825  1.00  0.00     0.033 C 
ATOM     24  C   UNL     1      -3.951   4.766   4.077  1.00  0.00     0.120 C 
ATOM     25  C   UNL     1      -5.462   4.190   2.211  1.00  0.00     0.014 C 
ATOM     26  C   UNL     1      -4.802   2.426   3.782  1.00  0.00     0.014 C 
BRANCH  24  27
ATOM     27  O   UNL     1      -5.026   4.871   5.020  1.00  0.00    -0.393 OA
ATOM     28  H   UNL     1      -4.844   5.611   5.652  1.00  0.00     0.210 HD
ENDBRANCH  24  27
ENDBRANCH   3   5
ENDBRANCH   2   3
ENDBRANCH   1   2
BRANCH   1  29
ATOM     29  C   UNL     1       4.477  -0.212  -4.854  1.00  0.00     0.148 C 
BRANCH  29  30
ATOM     30  C   UNL     1       4.620  -1.592  -5.500  1.00  0.00     0.111 C 
ATOM     31  C   UNL     1       3.275  -2.021  -6.088  1.00  0.00     0.047 C 
BRANCH  30  32
ATOM     32  C   UNL     1       5.667  -1.527  -6.614  1.00  0.00     0.193 C 
BRANCH  32  33
ATOM     33  O   UNL     1       5.717  -2.783  -7.294  1.00  0.00    -0.393 OA
ATOM     34  H   UNL     1       4.830  -2.983  -7.686  1.00  0.00     0.210 HD
ENDBRANCH  32  33
ENDBRANCH  30  32
BRANCH  30  35
ATOM     35  O   UNL     1       5.033  -2.539  -4.513  1.00  0.00    -0.385 OA
ATOM     36  H   UNL     1       4.356  -2.582  -3.792  1.00  0.00     0.211 HD
ENDBRANCH  30  35
ENDBRANCH  29  30
BRANCH  29  37
ATOM     37  O   UNL     1       4.064   0.736  -5.841  1.00  0.00    -0.390 OA
ATOM     38  H   UNL     1       3.972   1.629  -5.424  1.00  0.00     0.211 HD
ENDBRANCH  29  37
ENDBRANCH   1  29
TORSDOF 10
