REMARK SMILES N#CCSc1nnc(-c2sc3nnc(-c4ccccc4)c(-c4ccccc4)c3c2N)n1Cc1ccccc1
REMARK SMILES IDX 31 1 8 2 7 3 6 4 5 5 32 6 33 7 36 8 37 9 35 10 38 11 34 12
REMARK SMILES IDX 4 13 3 14 2 15 1 16 9 17 10 18 29 19 11 20 28 21 12 22 21 23
REMARK SMILES IDX 13 24 14 25 30 26 22 29 27 30 23 31 26 32 24 33 25 34 15 35
REMARK SMILES IDX 20 36 16 37 19 38 17 39 18 40
REMARK H PARENT 30 27 30 28
REMARK Flexibility Score: inf
ROOT
ATOM      1  N   UNL     1      -2.970   0.320   1.346  1.00  0.00    -0.297 N 
ATOM      2  C   UNL     1      -2.577  -0.823   2.008  1.00  0.00     0.177 A 
ATOM      3  N   UNL     1      -3.305  -0.904   3.101  1.00  0.00    -0.128 NA
ATOM      4  N   UNL     1      -4.118   0.090   3.161  1.00  0.00    -0.123 NA
ATOM      5  C   UNL     1      -3.957   0.870   2.116  1.00  0.00     0.192 A 
ENDROOT
BRANCH   1   6
ATOM      6  C   UNL     1      -2.444   0.835   0.079  1.00  0.00     0.162 C 
BRANCH   6   7
ATOM      7  C   UNL     1      -1.356   1.839   0.358  1.00  0.00    -0.028 A 
ATOM      8  C   UNL     1       0.642   3.682   0.864  1.00  0.00     0.000 A 
ATOM      9  C   UNL     1      -0.647   4.112   0.613  1.00  0.00     0.000 A 
ATOM     10  C   UNL     1       0.932   2.330   0.864  1.00  0.00     0.000 A 
ATOM     11  C   UNL     1      -1.647   3.190   0.363  1.00  0.00     0.005 A 
ATOM     12  C   UNL     1      -0.067   1.409   0.614  1.00  0.00     0.005 A 
ENDBRANCH   6   7
ENDBRANCH   1   6
BRANCH   5  13
ATOM     13  S   UNL     1      -4.850   2.349   1.770  1.00  0.00    -0.071 SA
BRANCH  13  14
ATOM     14  C   UNL     1      -5.942   2.402   3.211  1.00  0.00     0.198 C 
BRANCH  14  15
ATOM     15  C   UNL     1      -6.805   3.592   3.131  1.00  0.00     0.074 C 
ATOM     16  N   UNL     1      -7.470   4.511   3.068  1.00  0.00    -0.197 NA
ENDBRANCH  14  15
ENDBRANCH  13  14
ENDBRANCH   5  13
BRANCH   2  17
ATOM     17  C   UNL     1      -1.540  -1.770   1.577  1.00  0.00     0.098 A 
ATOM     18  S   UNL     1      -0.626  -1.786   0.046  1.00  0.00    -0.108 S 
ATOM     19  C   UNL     1      -1.042  -2.845   2.255  1.00  0.00     0.064 A 
ATOM     20  C   UNL     1       0.385  -3.215   0.337  1.00  0.00     0.149 A 
ATOM     21  C   UNL     1      -0.015  -3.649   1.626  1.00  0.00     0.047 A 
ATOM     22  N   UNL     1       1.310  -3.842  -0.352  1.00  0.00    -0.139 NA
ATOM     23  C   UNL     1       0.658  -4.809   2.114  1.00  0.00     0.022 A 
ATOM     24  N   UNL     1       1.908  -4.887   0.100  1.00  0.00    -0.148 NA
ATOM     25  C   UNL     1       1.627  -5.398   1.294  1.00  0.00     0.102 A 
BRANCH  19  26
ATOM     26  N   UNL     1      -1.517  -3.166   3.533  1.00  0.00    -0.397 N 
ATOM     27  H   UNL     1      -2.250  -2.584   3.963  1.00  0.00     0.156 HD
ATOM     28  H   UNL     1      -1.138  -3.978   4.041  1.00  0.00     0.156 HD
ENDBRANCH  19  26
BRANCH  23  29
ATOM     29  C   UNL     1       0.341  -5.372   3.445  1.00  0.00    -0.015 A 
ATOM     30  C   UNL     1       0.733  -4.698   4.602  1.00  0.00     0.009 A 
ATOM     31  C   UNL     1      -0.358  -6.575   3.549  1.00  0.00     0.009 A 
ATOM     32  C   UNL     1       0.434  -5.228   5.840  1.00  0.00     0.001 A 
ATOM     33  C   UNL     1      -0.646  -7.098   4.793  1.00  0.00     0.001 A 
ATOM     34  C   UNL     1      -0.254  -6.425   5.936  1.00  0.00     0.000 A 
ENDBRANCH  23  29
BRANCH  25  35
ATOM     35  C   UNL     1       2.349  -6.604   1.763  1.00  0.00     0.003 A 
ATOM     36  C   UNL     1       2.718  -7.596   0.856  1.00  0.00     0.010 A 
ATOM     37  C   UNL     1       2.666  -6.749   3.113  1.00  0.00     0.010 A 
ATOM     38  C   UNL     1       3.389  -8.717   1.298  1.00  0.00     0.001 A 
ATOM     39  C   UNL     1       3.333  -7.878   3.545  1.00  0.00     0.001 A 
ATOM     40  C   UNL     1       3.697  -8.858   2.640  1.00  0.00     0.000 A 
ENDBRANCH  25  35
ENDBRANCH   2  17
TORSDOF 9
