REMARK SMILES CC1(C)C[C@@H]2C[C@@](C)(C[N@@H+]2Cc2ccc(C(=O)NC3c4ccccc4-c4ccccc43)c(=O)[nH]2)C1
REMARK SMILES IDX 12 1 13 2 14 3 15 4 32 5 33 6 34 7 11 9 10 10 1 11 2 12
REMARK SMILES IDX 35 13 4 14 3 15 7 16 5 17 6 18 9 19 8 20 16 22 17 23 18 24
REMARK SMILES IDX 19 26 31 27 20 28 26 29 30 30 25 31 21 32 27 33 29 34 24 35
REMARK SMILES IDX 22 36 28 37 23 38
REMARK H PARENT 34 8 10 21 18 25
REMARK Flexibility Score: inf
ROOT
ATOM      1  C   UNL     1      -3.242   8.509  -4.285  1.00  0.00     0.073 A 
ATOM      2  C   UNL     1      -4.001   8.538  -3.160  1.00  0.00     0.028 A 
ATOM      3  C   UNL     1      -3.571   7.880  -2.008  1.00  0.00     0.021 A 
ATOM      4  C   UNL     1      -2.356   7.199  -2.034  1.00  0.00     0.104 A 
ATOM      5  C   UNL     1      -1.595   7.202  -3.232  1.00  0.00     0.261 A 
ATOM      6  O   UNL     1      -0.527   6.618  -3.279  1.00  0.00    -0.269 OA
ATOM      7  N   UNL     1      -2.060   7.849  -4.318  1.00  0.00    -0.320 N 
ATOM      8  H   UNL     1      -1.508   7.841  -5.187  1.00  0.00     0.170 HD
ENDROOT
BRANCH   1   9
ATOM      9  C   UNL     1      -3.723   9.226  -5.520  1.00  0.00     0.317 C 
BRANCH   9  10
ATOM     10  N   UNL     1      -2.724  10.308  -5.843  1.00  0.00    -0.327 N 
ATOM     11  C   UNL     1      -5.923  11.542  -6.228  1.00  0.00     0.011 C 
ATOM     12  C   UNL     1      -4.894  12.554  -5.716  1.00  0.00    -0.029 C 
ATOM     13  C   UNL     1      -4.056  13.094  -6.861  1.00  0.00     0.019 C 
ATOM     14  C   UNL     1      -4.121  11.999  -4.534  1.00  0.00     0.071 C 
ATOM     15  C   UNL     1      -5.718  13.756  -5.173  1.00  0.00     0.011 C 
ATOM     16  C   UNL     1      -2.701  12.403  -7.021  1.00  0.00     0.023 C 
ATOM     17  C   UNL     1      -2.752  11.415  -4.864  1.00  0.00     0.185 C 
ATOM     18  C   UNL     1      -1.978  12.517  -5.649  1.00  0.00     0.077 C 
ATOM     19  C   UNL     1      -2.928  10.879  -7.176  1.00  0.00     0.269 C 
ATOM     20  C   UNL     1      -1.868  12.987  -8.171  1.00  0.00     0.017 C 
ATOM     21  H   UNL     1      -1.809   9.837  -5.804  1.00  0.00     0.348 HD
ENDBRANCH   9  10
ENDBRANCH   1   9
BRANCH   4  22
ATOM     22  C   UNL     1      -1.868   6.493  -0.840  1.00  0.00     0.257 C 
ATOM     23  O   UNL     1      -2.572   6.411   0.149  1.00  0.00    -0.269 OA
ATOM     24  N   UNL     1      -0.640   5.937  -0.840  1.00  0.00    -0.341 N 
ATOM     25  H   UNL     1      -0.073   5.942  -1.700  1.00  0.00     0.164 HD
BRANCH  24  26
ATOM     26  C   UNL     1      -0.112   5.327   0.383  1.00  0.00     0.144 C 
ATOM     27  C   UNL     1       1.397   5.334   0.357  1.00  0.00    -0.013 A 
ATOM     28  C   UNL     1      -0.521   3.876   0.457  1.00  0.00    -0.013 A 
ATOM     29  C   UNL     1       1.824   4.010   0.412  1.00  0.00    -0.012 A 
ATOM     30  C   UNL     1       2.317   6.359   0.293  1.00  0.00     0.007 A 
ATOM     31  C   UNL     1       0.643   3.112   0.473  1.00  0.00    -0.012 A 
ATOM     32  C   UNL     1      -1.755   3.264   0.506  1.00  0.00     0.007 A 
ATOM     33  C   UNL     1       3.191   3.730   0.402  1.00  0.00     0.009 A 
ATOM     34  C   UNL     1       3.671   6.074   0.283  1.00  0.00     0.000 A 
ATOM     35  C   UNL     1       0.548   1.721   0.540  1.00  0.00     0.009 A 
ATOM     36  C   UNL     1      -1.842   1.884   0.567  1.00  0.00     0.000 A 
ATOM     37  C   UNL     1       4.105   4.762   0.337  1.00  0.00     0.001 A 
ATOM     38  C   UNL     1      -0.691   1.117   0.589  1.00  0.00     0.001 A 
ENDBRANCH  24  26
ENDBRANCH   4  22
TORSDOF 4
