REMARK SMILES C[C@@H](Sc1nnc(CNc2cccc3ccccc23)n1-c1ccccc1)C(=O)N/N=C/c1cccs1
REMARK SMILES IDX 3 1 2 2 1 3 27 4 28 5 29 6 30 8 31 9 32 10 36 11 33 12 35 13
REMARK SMILES IDX 34 14 4 15 20 16 5 17 7 18 6 19 21 20 26 21 22 22 25 23
REMARK SMILES IDX 23 24 24 25 8 26 9 27 10 29 19 30 11 31 14 32 18 33 12 34
REMARK SMILES IDX 13 35 15 36 17 37 16 38
REMARK H PARENT 29 7 9 28
REMARK Flexibility Score: inf
ROOT
ATOM      1  S   UNL     1      -7.732   6.196  -1.467  1.00  0.00    -0.073 SA
ENDROOT
BRANCH   1   2
ATOM      2  C   UNL     1      -8.679   6.959  -0.126  1.00  0.00     0.142 C 
ATOM      3  C   UNL     1      -9.410   5.872   0.664  1.00  0.00     0.030 C 
BRANCH   2   4
ATOM      4  C   UNL     1      -9.683   7.922  -0.705  1.00  0.00     0.253 C 
ATOM      5  O   UNL     1     -10.083   7.772  -1.840  1.00  0.00    -0.272 OA
ATOM      6  N   UNL     1     -10.137   8.950   0.039  1.00  0.00    -0.246 N 
ATOM      7  H   UNL     1      -9.798   9.078   1.003  1.00  0.00     0.193 HD
BRANCH   6   8
ATOM      8  N   UNL     1     -11.071   9.845  -0.499  1.00  0.00    -0.180 NA
ATOM      9  C   UNL     1     -11.509  10.837   0.219  1.00  0.00     0.152 C 
BRANCH   9  10
ATOM     10  C   UNL     1     -12.487  11.774  -0.344  1.00  0.00     0.047 A 
ATOM     11  S   UNL     1     -13.226  11.789  -1.970  1.00  0.00    -0.143 S 
ATOM     12  C   UNL     1     -13.073  12.882   0.243  1.00  0.00     0.021 A 
ATOM     13  C   UNL     1     -14.256  13.232  -1.768  1.00  0.00     0.065 A 
ATOM     14  C   UNL     1     -13.973  13.614  -0.495  1.00  0.00     0.012 A 
ENDBRANCH   9  10
ENDBRANCH   6   8
ENDBRANCH   2   4
ENDBRANCH   1   2
BRANCH   1  15
ATOM     15  C   UNL     1      -6.568   5.265  -0.528  1.00  0.00     0.196 A 
ATOM     16  N   UNL     1      -5.574   4.466  -1.025  1.00  0.00    -0.273 N 
ATOM     17  N   UNL     1      -6.489   5.205   0.781  1.00  0.00    -0.123 NA
ATOM     18  C   UNL     1      -4.931   3.953   0.069  1.00  0.00     0.157 A 
ATOM     19  N   UNL     1      -5.527   4.427   1.127  1.00  0.00    -0.132 NA
BRANCH  16  20
ATOM     20  C   UNL     1      -5.277   4.224  -2.374  1.00  0.00     0.049 A 
ATOM     21  C   UNL     1      -6.191   3.560  -3.180  1.00  0.00     0.027 A 
ATOM     22  C   UNL     1      -4.069   4.654  -2.908  1.00  0.00     0.027 A 
ATOM     23  C   UNL     1      -5.896   3.323  -4.508  1.00  0.00     0.002 A 
ATOM     24  C   UNL     1      -3.776   4.408  -4.235  1.00  0.00     0.002 A 
ATOM     25  C   UNL     1      -4.689   3.747  -5.036  1.00  0.00     0.000 A 
ENDBRANCH  16  20
BRANCH  18  26
ATOM     26  C   UNL     1      -3.756   3.009   0.054  1.00  0.00     0.191 C 
BRANCH  26  27
ATOM     27  N   UNL     1      -2.510   3.780   0.045  1.00  0.00    -0.377 N 
ATOM     28  H   UNL     1      -2.542   4.810   0.051  1.00  0.00     0.161 HD
BRANCH  27  29
ATOM     29  C   UNL     1      -1.283   3.121   0.031  1.00  0.00     0.042 A 
ATOM     30  C   UNL     1      -0.079   3.858   0.023  1.00  0.00     0.005 A 
ATOM     31  C   UNL     1      -1.233   1.744   0.017  1.00  0.00     0.026 A 
ATOM     32  C   UNL     1       1.157   3.167   0.007  1.00  0.00    -0.016 A 
ATOM     33  C   UNL     1      -0.084   5.262   0.029  1.00  0.00     0.011 A 
ATOM     34  C   UNL     1      -0.013   1.076   0.008  1.00  0.00     0.003 A 
ATOM     35  C   UNL     1       1.164   1.762   0.000  1.00  0.00     0.009 A 
ATOM     36  C   UNL     1       2.356   3.901  -0.001  1.00  0.00     0.009 A 
ATOM     37  C   UNL     1       1.097   5.940   0.021  1.00  0.00     0.001 A 
ATOM     38  C   UNL     1       2.313   5.261   0.006  1.00  0.00     0.001 A 
ENDBRANCH  27  29
ENDBRANCH  26  27
ENDBRANCH  18  26
ENDBRANCH   1  15
TORSDOF 9
