REMARK SMILES COc1ccc(NC(=O)C2(N(Cc3ccccc3)C(=O)C[C@@H]3[C@H](c4c(C)[nH]c5ccccc45)C3(C)C)CC[NH+](C)CC2)c(OC)c1
REMARK SMILES IDX 11 1 19 2 20 3 21 4 22 5 23 6 34 7 35 8 36 9 24 10 26 11
REMARK SMILES IDX 25 12 27 13 28 14 33 16 29 17 32 18 30 19 31 20 12 21 13 22
REMARK SMILES IDX 18 23 14 24 17 25 15 26 16 27 10 28 42 29 37 30 41 31 38 32
REMARK SMILES IDX 39 33 40 34 8 36 9 37 7 38 6 40 43 41 5 42 46 43 4 44 3 45
REMARK SMILES IDX 44 46 45 47 2 48 1 49
REMARK H PARENT 27 15 39 35 7 39
REMARK Flexibility Score: inf
ROOT
ATOM      1  N   UNL     1      -2.848   2.084  -2.842  1.00  0.00    -0.323 N 
ENDROOT
BRANCH   1   2
ATOM      2  C   UNL     1      -1.796   2.175  -2.005  1.00  0.00     0.224 C 
ATOM      3  O   UNL     1      -0.670   2.245  -2.451  1.00  0.00    -0.275 OA
BRANCH   2   4
ATOM      4  C   UNL     1      -2.018   2.191  -0.515  1.00  0.00     0.105 C 
BRANCH   4   5
ATOM      5  C   UNL     1      -0.670   2.101   0.203  1.00  0.00     0.013 C 
ATOM      6  C   UNL     1      -0.562   1.138   1.387  1.00  0.00     0.032 C 
ATOM      7  C   UNL     1      -0.591   2.648   1.630  1.00  0.00    -0.024 C 
ATOM      8  C   UNL     1      -1.867   3.243   2.231  1.00  0.00     0.012 C 
ATOM      9  C   UNL     1       0.715   3.320   2.058  1.00  0.00     0.012 C 
BRANCH   6  10
ATOM     10  C   UNL     1      -1.793   0.350   1.757  1.00  0.00    -0.016 A 
ATOM     11  C   UNL     1      -2.023  -0.924  -0.415  1.00  0.00     0.064 C 
ATOM     12  C   UNL     1      -2.431  -0.543   0.985  1.00  0.00     0.016 A 
ATOM     13  N   UNL     1      -3.505  -1.059   1.658  1.00  0.00    -0.358 N 
ATOM     14  C   UNL     1      -3.591  -0.489   2.908  1.00  0.00     0.046 A 
ATOM     15  H   UNL     1      -4.152  -1.768   1.285  1.00  0.00     0.166 HD
ATOM     16  C   UNL     1      -2.523   0.419   3.025  1.00  0.00     0.003 A 
ATOM     17  C   UNL     1      -4.473  -0.644   3.973  1.00  0.00     0.026 A 
ATOM     18  C   UNL     1      -2.357   1.152   4.202  1.00  0.00     0.010 A 
ATOM     19  C   UNL     1      -4.291   0.090   5.125  1.00  0.00     0.002 A 
ATOM     20  C   UNL     1      -3.235   0.984   5.235  1.00  0.00     0.001 A 
ENDBRANCH   6  10
ENDBRANCH   4   5
ENDBRANCH   2   4
ENDBRANCH   1   2
BRANCH   1  21
ATOM     21  C   UNL     1      -4.213   2.146  -2.313  1.00  0.00     0.156 C 
BRANCH  21  22
ATOM     22  C   UNL     1      -4.526   3.560  -1.897  1.00  0.00    -0.029 A 
ATOM     23  C   UNL     1      -4.719   4.537  -2.856  1.00  0.00     0.005 A 
ATOM     24  C   UNL     1      -4.627   3.879  -0.555  1.00  0.00     0.005 A 
ATOM     25  C   UNL     1      -5.007   5.833  -2.473  1.00  0.00     0.000 A 
ATOM     26  C   UNL     1      -4.909   5.177  -0.173  1.00  0.00     0.000 A 
ATOM     27  C   UNL     1      -5.102   6.154  -1.132  1.00  0.00     0.000 A 
ENDBRANCH  21  22
ENDBRANCH   1  21
BRANCH   1  28
ATOM     28  C   UNL     1      -2.627   1.923  -4.282  1.00  0.00     0.133 C 
ATOM     29  C   UNL     1      -1.659   0.761  -4.524  1.00  0.00     0.100 C 
ATOM     30  C   UNL     1      -3.960   1.621  -4.973  1.00  0.00     0.100 C 
ATOM     31  C   UNL     1      -2.284  -0.535  -4.001  1.00  0.00     0.265 C 
ATOM     32  C   UNL     1      -4.518   0.299  -4.437  1.00  0.00     0.265 C 
ATOM     33  N   UNL     1      -3.550  -0.782  -4.723  1.00  0.00    -0.337 N 
ATOM     34  C   UNL     1      -4.116  -2.086  -4.318  1.00  0.00     0.332 C 
ATOM     35  H   UNL     1      -3.359  -0.799  -5.735  1.00  0.00     0.347 HD
BRANCH  28  36
ATOM     36  C   UNL     1      -2.042   3.191  -4.847  1.00  0.00     0.250 C 
ATOM     37  O   UNL     1      -1.344   3.148  -5.838  1.00  0.00    -0.272 OA
ATOM     38  N   UNL     1      -2.295   4.373  -4.251  1.00  0.00    -0.321 N 
ATOM     39  H   UNL     1      -2.820   4.402  -3.365  1.00  0.00     0.170 HD
BRANCH  38  40
ATOM     40  C   UNL     1      -1.843   5.565  -4.837  1.00  0.00     0.084 A 
ATOM     41  C   UNL     1      -1.783   6.734  -4.082  1.00  0.00     0.146 A 
ATOM     42  C   UNL     1      -1.448   5.579  -6.167  1.00  0.00     0.034 A 
ATOM     43  C   UNL     1      -1.336   7.909  -4.664  1.00  0.00     0.095 A 
ATOM     44  C   UNL     1      -1.007   6.754  -6.745  1.00  0.00     0.049 A 
ATOM     45  C   UNL     1      -0.948   7.919  -5.995  1.00  0.00     0.122 A 
BRANCH  41  46
ATOM     46  O   UNL     1      -2.164   6.723  -2.777  1.00  0.00    -0.494 OA
ATOM     47  C   UNL     1      -1.968   7.927  -2.033  1.00  0.00     0.278 C 
ENDBRANCH  41  46
BRANCH  45  48
ATOM     48  O   UNL     1      -0.508   9.072  -6.566  1.00  0.00    -0.497 OA
ATOM     49  C   UNL     1      -0.125   9.011  -7.941  1.00  0.00     0.278 C 
ENDBRANCH  45  48
ENDBRANCH  38  40
ENDBRANCH  28  36
ENDBRANCH   1  28
TORSDOF 11
