REMARK SMILES Cc1ccc(-c2nn(-c3ccc(F)cc3)cc2C(=O)Nc2nc(-c3c[nH]c(C(N)=O)c3)cs2)cc1
REMARK SMILES IDX 21 1 22 2 23 3 32 4 33 5 20 6 18 7 19 8 17 10 6 11 7 12 8 13
REMARK SMILES IDX 16 14 5 15 1 16 2 17 35 18 3 19 34 20 4 21 9 22 15 23 10 24
REMARK SMILES IDX 14 25 11 26 12 27 13 28 24 29 25 30 31 31 26 32 27 33 28 35
REMARK SMILES IDX 30 36 29 37
REMARK H PARENT 20 9 26 34 29 38 29 39
REMARK Flexibility Score: inf
ROOT
ATOM      1  C   UNL     1       2.303   0.078  -0.019  1.00  0.00     0.190 A 
ATOM      2  N   UNL     1       1.180  -0.611  -0.013  1.00  0.00    -0.220 NA
ATOM      3  C   UNL     1       0.002  -0.004   0.002  1.00  0.00     0.085 A 
ATOM      4  C   UNL     1      -0.016   1.362   0.009  1.00  0.00     0.097 A 
ATOM      5  S   UNL     1       1.734   1.718  -0.005  1.00  0.00    -0.105 S 
ENDROOT
BRANCH   1   6
ATOM      6  N   UNL     1       3.611  -0.389  -0.035  1.00  0.00    -0.298 N 
ATOM      7  C   UNL     1       4.638   0.483  -0.040  1.00  0.00     0.261 C 
ATOM      8  O   UNL     1       4.420   1.679  -0.031  1.00  0.00    -0.269 OA
ATOM      9  H   UNL     1       3.795  -1.403  -0.042  1.00  0.00     0.172 HD
BRANCH   7  10
ATOM     10  C   UNL     1       6.024  -0.013  -0.056  1.00  0.00     0.086 A 
ATOM     11  C   UNL     1       7.247   0.797  -0.063  1.00  0.00     0.106 A 
ATOM     12  N   UNL     1       8.261  -0.038  -0.076  1.00  0.00    -0.167 NA
ATOM     13  N   UNL     1       7.775  -1.348  -0.078  1.00  0.00    -0.240 N 
ATOM     14  C   UNL     1       6.431  -1.331  -0.060  1.00  0.00     0.129 A 
BRANCH  11  15
ATOM     15  C   UNL     1       7.323   2.278  -0.056  1.00  0.00     0.003 A 
ATOM     16  C   UNL     1       7.544   6.548  -0.037  1.00  0.00     0.044 C 
ATOM     17  C   UNL     1       7.466   5.043  -0.044  1.00  0.00    -0.051 A 
ATOM     18  C   UNL     1       6.443   4.409  -0.726  1.00  0.00     0.004 A 
ATOM     19  C   UNL     1       8.418   4.301   0.631  1.00  0.00     0.004 A 
ATOM     20  C   UNL     1       6.370   3.031  -0.740  1.00  0.00     0.011 A 
ATOM     21  C   UNL     1       8.352   2.922   0.629  1.00  0.00     0.011 A 
ENDBRANCH  11  15
BRANCH  13  22
ATOM     22  C   UNL     1       8.568  -2.504  -0.090  1.00  0.00     0.065 A 
ATOM     23  C   UNL     1       9.952  -2.397  -0.102  1.00  0.00     0.031 A 
ATOM     24  C   UNL     1       7.970  -3.757  -0.085  1.00  0.00     0.031 A 
ATOM     25  C   UNL     1      10.732  -3.536  -0.114  1.00  0.00     0.041 A 
ATOM     26  C   UNL     1       8.754  -4.894  -0.101  1.00  0.00     0.041 A 
ATOM     27  C   UNL     1      10.134  -4.785  -0.113  1.00  0.00     0.123 A 
ATOM     28  F   UNL     1      10.899  -5.899  -0.124  1.00  0.00    -0.207 F 
ENDBRANCH  13  22
ENDBRANCH   7  10
ENDBRANCH   1   6
BRANCH   3  29
ATOM     29  C   UNL     1      -1.261  -0.786   0.009  1.00  0.00     0.019 A 
ATOM     30  C   UNL     1      -2.526  -0.278  -0.073  1.00  0.00     0.093 A 
ATOM     31  C   UNL     1      -1.372  -2.186   0.096  1.00  0.00     0.043 A 
ATOM     32  N   UNL     1      -3.406  -1.308  -0.035  1.00  0.00    -0.357 N 
ATOM     33  C   UNL     1      -2.705  -2.488   0.072  1.00  0.00     0.104 A 
ATOM     34  H   UNL     1      -4.432  -1.221  -0.079  1.00  0.00     0.166 HD
BRANCH  33  35
ATOM     35  C   UNL     1      -3.287  -3.833   0.144  1.00  0.00     0.265 C 
ATOM     36  O   UNL     1      -2.562  -4.805   0.238  1.00  0.00    -0.268 OA
ATOM     37  N   UNL     1      -4.625  -3.991   0.105  1.00  0.00    -0.364 N 
ATOM     38  H   UNL     1      -5.239  -3.168   0.025  1.00  0.00     0.160 HD
ATOM     39  H   UNL     1      -5.033  -4.936   0.155  1.00  0.00     0.160 HD
ENDBRANCH  33  35
ENDBRANCH   3  29
TORSDOF 6
