REMARK SMILES CN(C)c1ccc(/C=C2/CCCC3=C2NN(C(=S)NC(=O)c2ccco2)[C@@H]3c2ccc(N(C)C)cc2)cc1
REMARK SMILES IDX 8 1 9 2 10 3 11 4 12 5 13 6 14 7 15 8 16 9 27 10 7 12 4 13
REMARK SMILES IDX 38 14 5 15 37 16 6 17 2 18 1 19 3 20 28 21 36 22 29 23 35 24
REMARK SMILES IDX 30 25 31 26 32 27 33 28 34 29 17 30 18 31 19 32 20 33 21 35
REMARK SMILES IDX 22 36 26 37 23 38 25 39 24 40
REMARK H PARENT 15 11 19 34
REMARK Flexibility Score: inf
ROOT
ATOM      1  C   UNL     1       8.639  -1.522  -0.401  1.00  0.00     0.014 C 
ATOM      2  C   UNL     1       8.438  -2.726   0.164  1.00  0.00    -0.022 C 
ATOM      3  C   UNL     1       9.539  -3.768   0.263  1.00  0.00     0.038 C 
ATOM      4  C   UNL     1       8.943  -5.134  -0.094  1.00  0.00     0.009 C 
ATOM      5  C   UNL     1       7.873  -5.527   0.929  1.00  0.00     0.036 C 
ATOM      6  C   UNL     1       6.884  -4.402   1.076  1.00  0.00    -0.016 C 
ATOM      7  C   UNL     1       7.129  -3.125   0.731  1.00  0.00     0.059 C 
ATOM      8  N   UNL     1       6.032  -2.320   0.981  1.00  0.00    -0.295 N 
ATOM      9  N   UNL     1       4.984  -3.078   1.525  1.00  0.00    -0.251 N 
ATOM     10  C   UNL     1       5.482  -4.462   1.620  1.00  0.00     0.166 C 
ATOM     11  H   UNL     1       5.990  -1.307   0.795  1.00  0.00     0.188 HD
ENDROOT
BRANCH   1  12
ATOM     12  C   UNL     1       7.489  -0.669  -0.744  1.00  0.00    -0.025 A 
ATOM     13  C   UNL     1       5.324   0.938  -1.389  1.00  0.00     0.036 A 
ATOM     14  C   UNL     1       5.252  -0.437  -1.589  1.00  0.00     0.026 A 
ATOM     15  C   UNL     1       6.480   1.508  -0.867  1.00  0.00     0.026 A 
ATOM     16  C   UNL     1       6.327  -1.238  -1.275  1.00  0.00     0.010 A 
ATOM     17  C   UNL     1       7.558   0.714  -0.544  1.00  0.00     0.010 A 
BRANCH  13  18
ATOM     18  N   UNL     1       4.235   1.746  -1.714  1.00  0.00    -0.378 N 
ATOM     19  C   UNL     1       3.277   1.310  -2.734  1.00  0.00     0.143 C 
ATOM     20  C   UNL     1       4.048   3.030  -1.035  1.00  0.00     0.143 C 
ENDBRANCH  13  18
ENDBRANCH   1  12
BRANCH  10  21
ATOM     21  C   UNL     1       5.492  -4.919   3.056  1.00  0.00    -0.019 A 
ATOM     22  C   UNL     1       5.135  -6.217   3.369  1.00  0.00     0.008 A 
ATOM     23  C   UNL     1       5.864  -4.040   4.057  1.00  0.00     0.008 A 
ATOM     24  C   UNL     1       5.143  -6.639   4.684  1.00  0.00     0.026 A 
ATOM     25  C   UNL     1       5.868  -4.454   5.374  1.00  0.00     0.026 A 
ATOM     26  C   UNL     1       5.510  -5.758   5.693  1.00  0.00     0.036 A 
BRANCH  26  27
ATOM     27  N   UNL     1       5.519  -6.181   7.024  1.00  0.00    -0.378 N 
ATOM     28  C   UNL     1       5.253  -7.584   7.348  1.00  0.00     0.143 C 
ATOM     29  C   UNL     1       5.795  -5.221   8.096  1.00  0.00     0.143 C 
ENDBRANCH  26  27
ENDBRANCH  10  21
BRANCH   9  30
ATOM     30  C   UNL     1       3.767  -2.629   1.892  1.00  0.00     0.195 C 
ATOM     31  S   UNL     1       2.569  -3.735   2.415  1.00  0.00    -0.039 S 
BRANCH  30  32
ATOM     32  N   UNL     1       3.493  -1.310   1.848  1.00  0.00    -0.295 N 
ATOM     33  C   UNL     1       2.317  -0.850   2.319  1.00  0.00     0.293 C 
ATOM     34  H   UNL     1       4.183  -0.654   1.454  1.00  0.00     0.172 HD
ATOM     35  O   UNL     1       1.544  -1.610   2.871  1.00  0.00    -0.265 OA
BRANCH  33  36
ATOM     36  C   UNL     1       1.971   0.566   2.167  1.00  0.00     0.191 A 
ATOM     37  O   UNL     1       2.773   1.529   1.668  1.00  0.00    -0.459 OA
ATOM     38  C   UNL     1       0.780   1.142   2.507  1.00  0.00     0.056 A 
ATOM     39  C   UNL     1       2.123   2.700   1.682  1.00  0.00     0.196 A 
ATOM     40  C   UNL     1       0.887   2.506   2.193  1.00  0.00     0.043 A 
ENDBRANCH  33  36
ENDBRANCH  30  32
ENDBRANCH   9  30
TORSDOF 7
