REMARK SMILES CCCCCCc1cc2cc(-c3nc(-c4ccc5c(c4)Cc4ccccc4-5)cs3)/c(=N/O)oc2cc1O
REMARK SMILES IDX 5 1 4 2 3 3 2 4 1 5 6 6 7 7 36 8 8 9 35 10 9 11 34 12 10 13
REMARK SMILES IDX 33 14 11 15 30 16 31 17 37 18 12 20 29 21 13 22 28 23 14 24
REMARK SMILES IDX 15 25 20 26 16 27 19 28 17 29 18 30 21 31 27 32 22 33 26 34
REMARK SMILES IDX 23 35 25 36 24 37 32 38
REMARK H PARENT 37 19 32 39
REMARK Flexibility Score: inf
ROOT
ATOM      1  C   UNL     1      -5.596  15.715   1.713  1.00  0.00     0.005 C 
ENDROOT
BRANCH   1   2
ATOM      2  C   UNL     1      -6.577  16.846   2.027  1.00  0.00     0.000 C 
BRANCH   2   3
ATOM      3  C   UNL     1      -6.325  17.362   3.445  1.00  0.00    -0.000 C 
BRANCH   3   4
ATOM      4  C   UNL     1      -7.307  18.493   3.758  1.00  0.00    -0.003 C 
ATOM      5  C   UNL     1      -7.054  19.009   5.176  1.00  0.00     0.004 C 
ENDBRANCH   3   4
ENDBRANCH   2   3
ENDBRANCH   1   2
BRANCH   1   6
ATOM      6  C   UNL     1      -5.848  15.199   0.295  1.00  0.00     0.039 C 
BRANCH   6   7
ATOM      7  C   UNL     1      -4.881  14.085  -0.013  1.00  0.00    -0.005 A 
ATOM      8  C   UNL     1      -3.576  14.388  -0.391  1.00  0.00     0.122 A 
ATOM      9  C   UNL     1      -5.292  12.785   0.079  1.00  0.00     0.019 A 
ATOM     10  C   UNL     1      -2.674  13.373  -0.679  1.00  0.00     0.094 A 
ATOM     11  C   UNL     1      -4.395  11.750  -0.207  1.00  0.00     0.019 A 
ATOM     12  C   UNL     1      -3.075  12.052  -0.591  1.00  0.00     0.140 A 
ATOM     13  C   UNL     1      -4.815  10.348  -0.116  1.00  0.00     0.029 A 
ATOM     14  O   UNL     1      -2.208  11.046  -0.872  1.00  0.00    -0.435 OA
ATOM     15  C   UNL     1      -3.832   9.388  -0.133  1.00  0.00     0.077 A 
ATOM     16  C   UNL     1      -2.432   9.854  -0.256  1.00  0.00     0.265 A 
ATOM     17  N   UNL     1      -1.444   9.143   0.211  1.00  0.00    -0.048 NA
BRANCH   8  18
ATOM     18  O   UNL     1      -3.183  15.684  -0.478  1.00  0.00    -0.508 OA
ATOM     19  H   UNL     1      -3.368  16.069   0.416  1.00  0.00     0.293 HD
ENDBRANCH   8  18
BRANCH  15  20
ATOM     20  C   UNL     1      -4.159   7.954  -0.040  1.00  0.00     0.129 A 
ATOM     21  S   UNL     1      -5.755   7.165   0.114  1.00  0.00    -0.122 S 
ATOM     22  N   UNL     1      -3.346   6.907  -0.041  1.00  0.00    -0.236 NA
ATOM     23  C   UNL     1      -5.167   5.477   0.154  1.00  0.00     0.096 A 
ATOM     24  C   UNL     1      -3.814   5.676   0.048  1.00  0.00     0.082 A 
BRANCH  24  25
ATOM     25  C   UNL     1      -2.886   4.520   0.038  1.00  0.00     0.001 A 
ATOM     26  C   UNL     1      -1.507   4.730   0.042  1.00  0.00     0.015 A 
ATOM     27  C   UNL     1      -3.390   3.219   0.032  1.00  0.00     0.011 A 
ATOM     28  C   UNL     1      -0.648   3.655   0.028  1.00  0.00    -0.035 A 
ATOM     29  C   UNL     1      -2.529   2.145   0.024  1.00  0.00     0.010 A 
ATOM     30  C   UNL     1      -1.147   2.354   0.020  1.00  0.00    -0.015 A 
ATOM     31  C   UNL     1       0.858   3.564   0.013  1.00  0.00     0.072 C 
ATOM     32  C   UNL     1      -0.017   1.392   0.010  1.00  0.00    -0.015 A 
ATOM     33  C   UNL     1       1.187   2.091   0.002  1.00  0.00    -0.036 A 
ATOM     34  C   UNL     1       0.002  -0.004   0.002  1.00  0.00     0.009 A 
ATOM     35  C   UNL     1       2.386   1.411  -0.014  1.00  0.00     0.005 A 
ATOM     36  C   UNL     1       1.206  -0.676  -0.013  1.00  0.00     0.001 A 
ATOM     37  C   UNL     1       2.397   0.027  -0.021  1.00  0.00     0.000 A 
ENDBRANCH  24  25
ENDBRANCH  15  20
BRANCH  17  38
ATOM     38  O   UNL     1      -0.113   9.609   0.081  1.00  0.00    -0.408 OA
ATOM     39  H   UNL     1      -0.107  10.499   0.514  1.00  0.00     0.330 HD
ENDBRANCH  17  38
ENDBRANCH   6   7
ENDBRANCH   1   6
TORSDOF 9
