REMARK SMILES CCOC(=O)C1=C(CN2CC[NH+](Cc3ccccc3)CC2)NC(=O)N[C@@H]1c1ccc(OC(C)C)cc1
REMARK SMILES IDX 6 1 7 2 22 3 23 4 24 5 25 6 26 7 4 10 5 11 3 12 2 13 1 14
REMARK SMILES IDX 27 15 36 16 28 17 35 18 29 19 30 20 31 21 32 22 33 23 34 24
REMARK SMILES IDX 8 25 9 26 21 27 10 28 20 29 11 30 12 31 13 33 14 34 19 35
REMARK SMILES IDX 15 36 18 37 16 38 17 39
REMARK H PARENT 22 8 25 9 12 32
REMARK Flexibility Score: inf
ROOT
ATOM      1  C   UNL     1       6.420   3.218   2.679  1.00  0.00     0.085 C 
ATOM      2  C   UNL     1       5.554   4.249   2.578  1.00  0.00     0.046 C 
ATOM      3  N   UNL     1       4.992   4.809   3.689  1.00  0.00    -0.310 N 
ATOM      4  C   UNL     1       5.236   4.388   4.937  1.00  0.00     0.319 C 
ATOM      5  O   UNL     1       4.684   4.946   5.865  1.00  0.00    -0.248 OA
ATOM      6  N   UNL     1       6.078   3.368   5.198  1.00  0.00    -0.327 N 
ATOM      7  C   UNL     1       6.741   2.699   4.066  1.00  0.00     0.154 C 
ATOM      8  H   UNL     1       4.344   5.599   3.561  1.00  0.00     0.171 HD
ATOM      9  H   UNL     1       6.253   3.064   6.166  1.00  0.00     0.166 HD
ENDROOT
BRANCH   1  10
ATOM     10  C   UNL     1       7.007   2.641   1.528  1.00  0.00     0.338 C 
ATOM     11  O   UNL     1       6.642   1.546   1.143  1.00  0.00    -0.246 OA
BRANCH  10  12
ATOM     12  O   UNL     1       7.972   3.304   0.859  1.00  0.00    -0.463 OA
BRANCH  12  13
ATOM     13  C   UNL     1       8.521   2.662  -0.294  1.00  0.00     0.230 C 
ATOM     14  C   UNL     1       9.592   3.560  -0.916  1.00  0.00     0.049 C 
ENDBRANCH  12  13
ENDBRANCH  10  12
ENDBRANCH   1  10
BRANCH   7  15
ATOM     15  C   UNL     1       8.230   2.809   4.270  1.00  0.00    -0.021 A 
ATOM     16  C   UNL     1       9.032   1.694   4.116  1.00  0.00     0.010 A 
ATOM     17  C   UNL     1       8.793   4.027   4.605  1.00  0.00     0.010 A 
ATOM     18  C   UNL     1      10.397   1.792   4.302  1.00  0.00     0.047 A 
ATOM     19  C   UNL     1      10.157   4.129   4.798  1.00  0.00     0.047 A 
ATOM     20  C   UNL     1      10.963   3.011   4.644  1.00  0.00     0.119 A 
BRANCH  20  21
ATOM     21  O   UNL     1      12.306   3.110   4.828  1.00  0.00    -0.491 OA
BRANCH  21  22
ATOM     22  C   UNL     1      13.060   1.898   4.769  1.00  0.00     0.167 C 
ATOM     23  C   UNL     1      13.430   1.597   3.315  1.00  0.00     0.052 C 
ATOM     24  C   UNL     1      14.337   2.050   5.599  1.00  0.00     0.052 C 
ENDBRANCH  21  22
ENDBRANCH  20  21
ENDBRANCH   7  15
BRANCH   2  25
ATOM     25  C   UNL     1       5.207   4.796   1.217  1.00  0.00     0.139 C 
BRANCH  25  26
ATOM     26  N   UNL     1       3.782   4.568   0.946  1.00  0.00    -0.286 NA
ATOM     27  C   UNL     1       3.491   3.132   0.827  1.00  0.00     0.146 C 
ATOM     28  C   UNL     1       3.352   5.291  -0.259  1.00  0.00     0.146 C 
ATOM     29  C   UNL     1       1.987   2.934   0.626  1.00  0.00     0.278 C 
ATOM     30  C   UNL     1       1.848   5.092  -0.461  1.00  0.00     0.278 C 
ATOM     31  N   UNL     1       1.558   3.657  -0.580  1.00  0.00    -0.329 N 
ATOM     32  H   UNL     1       2.093   3.289  -1.379  1.00  0.00     0.348 HD
BRANCH  31  33
ATOM     33  C   UNL     1       0.132   3.429  -0.850  1.00  0.00     0.299 C 
BRANCH  33  34
ATOM     34  C   UNL     1      -0.087   1.981  -1.208  1.00  0.00     0.006 A 
ATOM     35  C   UNL     1      -0.365   1.059  -0.216  1.00  0.00     0.009 A 
ATOM     36  C   UNL     1      -0.014   1.577  -2.527  1.00  0.00     0.009 A 
ATOM     37  C   UNL     1      -0.565  -0.269  -0.544  1.00  0.00     0.001 A 
ATOM     38  C   UNL     1      -0.210   0.248  -2.855  1.00  0.00     0.001 A 
ATOM     39  C   UNL     1      -0.488  -0.674  -1.863  1.00  0.00     0.000 A 
ENDBRANCH  33  34
ENDBRANCH  31  33
ENDBRANCH  25  26
ENDBRANCH   2  25
TORSDOF 10
