REMARK SMILES O=C(NC1CCCC1)c1ccc(N2CCC([NH2+][C@@H](c3ccncc3)c3ccc(Cl)cc3)CC2)cc1
REMARK SMILES IDX 16 1 15 2 14 3 13 4 33 5 32 6 17 7 18 10 25 11 26 12 27 13
REMARK SMILES IDX 31 14 28 15 30 16 29 17 19 18 24 19 20 20 23 21 21 22 22 23
REMARK SMILES IDX 12 24 34 25 11 26 35 27 10 28 9 29 2 30 1 31 3 32 4 34 8 35
REMARK SMILES IDX 5 36 7 37 6 38
REMARK H PARENT 17 8 17 9 3 33
REMARK Flexibility Score: inf
ROOT
ATOM      1  C   UNL     1      -3.207  -2.524  -0.995  1.00  0.00     0.186 C 
ATOM      2  C   UNL     1      -2.272  -2.909   0.155  1.00  0.00     0.086 C 
ATOM      3  C   UNL     1      -0.946  -2.162  -0.001  1.00  0.00     0.122 C 
ATOM      4  N   UNL     1      -1.193  -0.714   0.010  1.00  0.00    -0.371 N 
ATOM      5  C   UNL     1      -2.050  -0.314  -1.114  1.00  0.00     0.122 C 
ATOM      6  C   UNL     1      -3.410  -1.006  -0.992  1.00  0.00     0.086 C 
ENDROOT
BRANCH   1   7
ATOM      7  N   UNL     1      -4.507  -3.196  -0.810  1.00  0.00    -0.334 N 
ATOM      8  H   UNL     1      -4.354  -4.124  -0.389  1.00  0.00     0.347 HD
ATOM      9  H   UNL     1      -5.095  -2.633  -0.179  1.00  0.00     0.347 HD
BRANCH   7  10
ATOM     10  C   UNL     1      -5.192  -3.353  -2.107  1.00  0.00     0.245 C 
BRANCH  10  11
ATOM     11  C   UNL     1      -6.678  -3.448  -1.873  1.00  0.00     0.014 A 
ATOM     12  C   UNL     1      -7.163  -4.176  -0.803  1.00  0.00     0.012 A 
ATOM     13  C   UNL     1      -8.526  -4.260  -0.586  1.00  0.00     0.021 A 
ATOM     14  C   UNL     1      -7.554  -2.813  -2.733  1.00  0.00     0.012 A 
ATOM     15  C   UNL     1      -9.404  -3.624  -1.446  1.00  0.00     0.041 A 
ATOM     16  C   UNL     1      -8.917  -2.901  -2.520  1.00  0.00     0.021 A 
ATOM     17  Cl  UNL     1     -11.115  -3.736  -1.178  1.00  0.00    -0.084 Cl
ENDBRANCH  10  11
BRANCH  10  18
ATOM     18  C   UNL     1      -4.708  -4.609  -2.783  1.00  0.00     0.017 A 
ATOM     19  C   UNL     1      -4.483  -4.638  -4.151  1.00  0.00     0.030 A 
ATOM     20  C   UNL     1      -4.471  -5.763  -2.051  1.00  0.00     0.030 A 
ATOM     21  C   UNL     1      -4.039  -5.809  -4.736  1.00  0.00     0.111 A 
ATOM     22  C   UNL     1      -4.031  -6.898  -2.705  1.00  0.00     0.111 A 
ATOM     23  N   UNL     1      -3.828  -6.889  -4.008  1.00  0.00    -0.265 NA
ENDBRANCH  10  18
ENDBRANCH   7  10
ENDBRANCH   1   7
BRANCH   4  24
ATOM     24  C   UNL     1       0.002  -0.004   0.002  1.00  0.00     0.037 A 
ATOM     25  C   UNL     1       1.215  -0.687  -0.013  1.00  0.00     0.027 A 
ATOM     26  C   UNL     1      -0.017   1.388   0.010  1.00  0.00     0.027 A 
ATOM     27  C   UNL     1       2.400   0.013  -0.021  1.00  0.00     0.016 A 
ATOM     28  C   UNL     1       1.165   2.094   0.002  1.00  0.00     0.016 A 
ATOM     29  C   UNL     1       2.385   1.411  -0.014  1.00  0.00     0.039 A 
BRANCH  29  30
ATOM     30  C   UNL     1       3.653   2.165  -0.023  1.00  0.00     0.251 C 
ATOM     31  O   UNL     1       4.713   1.570  -0.036  1.00  0.00    -0.269 OA
ATOM     32  N   UNL     1       3.636   3.512  -0.016  1.00  0.00    -0.349 N 
ATOM     33  H   UNL     1       2.738   4.016  -0.004  1.00  0.00     0.164 HD
BRANCH  32  34
ATOM     34  C   UNL     1       4.896   4.260  -0.025  1.00  0.00     0.082 C 
ATOM     35  C   UNL     1       4.674   5.659  -0.627  1.00  0.00     0.025 C 
ATOM     36  C   UNL     1       5.393   4.476   1.420  1.00  0.00     0.025 C 
ATOM     37  C   UNL     1       5.043   6.676   0.473  1.00  0.00     0.002 C 
ATOM     38  C   UNL     1       6.008   5.897   1.401  1.00  0.00     0.002 C 
ENDBRANCH  32  34
ENDBRANCH  29  30
ENDBRANCH   4  24
TORSDOF 7
