REMARK SMILES Cc1ccc2c(c1C)NC(=O)[C@@]21[NH2+][C@H](Cc2ccc(O)cc2)[C@H]2C(=O)N(CCc3ccccc3)C(=O)[C@H]21
REMARK SMILES IDX 1 1 2 2 3 3 4 4 5 5 6 6 7 7 8 8 9 9 10 10 11 11 12 12 37 13
REMARK SMILES IDX 23 14 14 15 24 16 25 17 26 18 35 19 36 20 13 21 15 25 16 26
REMARK SMILES IDX 22 27 17 28 21 29 18 30 19 31 20 32 27 34 28 35 29 36 34 37
REMARK SMILES IDX 30 38 33 39 31 40 32 41
REMARK H PARENT 9 22 13 23 13 24 20 33
REMARK Flexibility Score: inf
ROOT
ATOM      1  C   UNL     1       0.695   0.506   8.301  1.00  0.00     0.044 C 
ATOM      2  C   UNL     1       0.244   0.065   6.932  1.00  0.00    -0.046 A 
ATOM      3  C   UNL     1       1.157   0.002   5.894  1.00  0.00     0.004 A 
ATOM      4  C   UNL     1       0.743  -0.402   4.637  1.00  0.00     0.013 A 
ATOM      5  C   UNL     1      -0.574  -0.741   4.421  1.00  0.00     0.047 A 
ATOM      6  C   UNL     1      -1.500  -0.683   5.458  1.00  0.00     0.054 A 
ATOM      7  C   UNL     1      -1.076  -0.274   6.720  1.00  0.00    -0.024 A 
ATOM      8  C   UNL     1      -2.061  -0.203   7.857  1.00  0.00     0.047 C 
ATOM      9  N   UNL     1      -2.762  -1.071   5.001  1.00  0.00    -0.320 N 
ATOM     10  C   UNL     1      -2.751  -1.395   3.693  1.00  0.00     0.291 C 
ATOM     11  O   UNL     1      -3.697  -1.766   3.031  1.00  0.00    -0.267 OA
ATOM     12  C   UNL     1      -1.337  -1.208   3.214  1.00  0.00     0.216 C 
ATOM     13  C   UNL     1      -0.760  -2.511   2.649  1.00  0.00     0.174 C 
ATOM     14  C   UNL     1       0.131  -2.062   1.457  1.00  0.00     0.157 C 
ATOM     15  C   UNL     1       0.023  -0.522   1.442  1.00  0.00     0.201 C 
ATOM     16  C   UNL     1       1.529  -2.456   1.879  1.00  0.00     0.239 C 
ATOM     17  O   UNL     1       2.533  -2.290   1.220  1.00  0.00    -0.274 OA
ATOM     18  N   UNL     1       1.465  -3.019   3.108  1.00  0.00    -0.281 N 
ATOM     19  C   UNL     1       0.234  -3.098   3.626  1.00  0.00     0.240 C 
ATOM     20  O   UNL     1      -0.043  -3.567   4.708  1.00  0.00    -0.274 OA
ATOM     21  N   UNL     1      -1.242  -0.248   2.127  1.00  0.00    -0.326 N 
ATOM     22  H   UNL     1      -3.603  -1.105   5.594  1.00  0.00     0.170 HD
ATOM     23  H   UNL     1      -1.235   0.711   2.504  1.00  0.00     0.347 HD
ATOM     24  H   UNL     1      -2.029  -0.378   1.474  1.00  0.00     0.347 HD
ENDROOT
BRANCH  15  25
ATOM     25  C   UNL     1       0.002  -0.004   0.002  1.00  0.00     0.101 C 
BRANCH  25  26
ATOM     26  C   UNL     1      -0.018   1.503   0.010  1.00  0.00    -0.042 A 
ATOM     27  C   UNL     1       1.170   2.209   0.003  1.00  0.00     0.008 A 
ATOM     28  C   UNL     1      -1.226   2.177   0.020  1.00  0.00     0.008 A 
ATOM     29  C   UNL     1       1.154   3.591   0.011  1.00  0.00     0.046 A 
ATOM     30  C   UNL     1      -1.247   3.558   0.033  1.00  0.00     0.046 A 
ATOM     31  C   UNL     1      -0.056   4.269   0.026  1.00  0.00     0.115 A 
BRANCH  31  32
ATOM     32  O   UNL     1      -0.074   5.628   0.033  1.00  0.00    -0.508 OA
ATOM     33  H   UNL     1      -0.601   5.871   0.836  1.00  0.00     0.293 HD
ENDBRANCH  31  32
ENDBRANCH  25  26
ENDBRANCH  15  25
BRANCH  18  34
ATOM     34  C   UNL     1       2.653  -3.508   3.813  1.00  0.00     0.133 C 
BRANCH  34  35
ATOM     35  C   UNL     1       2.893  -4.975   3.448  1.00  0.00     0.057 C 
BRANCH  35  36
ATOM     36  C   UNL     1       4.115  -5.478   4.173  1.00  0.00    -0.046 A 
ATOM     37  C   UNL     1       3.990  -6.051   5.425  1.00  0.00     0.004 A 
ATOM     38  C   UNL     1       5.361  -5.373   3.583  1.00  0.00     0.004 A 
ATOM     39  C   UNL     1       5.110  -6.513   6.089  1.00  0.00     0.000 A 
ATOM     40  C   UNL     1       6.482  -5.832   4.249  1.00  0.00     0.000 A 
ATOM     41  C   UNL     1       6.357  -6.403   5.501  1.00  0.00     0.000 A 
ENDBRANCH  35  36
ENDBRANCH  34  35
ENDBRANCH  18  34
TORSDOF 6
