REMARK SMILES COc1ccc(CC[C@@H](C)[NH+]2CCN(c3cccc4c3C(=O)N(Cc3cccc(F)c3)C4=O)CC2)cc1
REMARK SMILES IDX 10 1 9 2 8 3 7 4 6 5 36 6 5 7 37 8 4 9 3 10 2 11 1 12 11 13
REMARK SMILES IDX 12 14 35 15 13 17 34 18 14 19 15 20 20 21 16 22 19 23 21 24
REMARK SMILES IDX 17 25 18 26 32 27 22 28 23 29 33 30 24 31 25 32 31 33 26 34
REMARK SMILES IDX 29 35 27 36 28 37 30 38
REMARK H PARENT 11 16
REMARK Flexibility Score: inf
ROOT
ATOM      1  C   UNL     1      -0.175  -4.567  -0.077  1.00  0.00     0.075 C 
ATOM      2  C   UNL     1       1.258  -4.038   0.008  1.00  0.00     0.181 C 
ENDROOT
BRANCH   2   3
ATOM      3  C   UNL     1       1.914  -4.546   1.294  1.00  0.00     0.069 C 
BRANCH   3   4
ATOM      4  C   UNL     1       3.384  -4.121   1.318  1.00  0.00     0.041 C 
BRANCH   4   5
ATOM      5  C   UNL     1       4.030  -4.622   2.584  1.00  0.00    -0.048 A 
ATOM      6  C   UNL     1       4.629  -5.868   2.607  1.00  0.00     0.007 A 
ATOM      7  C   UNL     1       4.028  -3.832   3.719  1.00  0.00     0.007 A 
ATOM      8  C   UNL     1       5.222  -6.329   3.767  1.00  0.00     0.046 A 
ATOM      9  C   UNL     1       4.614  -4.291   4.883  1.00  0.00     0.046 A 
ATOM     10  C   UNL     1       5.216  -5.541   4.909  1.00  0.00     0.118 A 
BRANCH  10  11
ATOM     11  O   UNL     1       5.798  -5.992   6.050  1.00  0.00    -0.497 OA
ATOM     12  C   UNL     1       5.755  -5.127   7.187  1.00  0.00     0.278 C 
ENDBRANCH  10  11
ENDBRANCH   4   5
ENDBRANCH   3   4
ENDBRANCH   2   3
BRANCH   2  13
ATOM     13  N   UNL     1       1.264  -2.559   0.017  1.00  0.00    -0.330 N 
ATOM     14  C   UNL     1       0.614  -2.044  -1.206  1.00  0.00     0.284 C 
ATOM     15  C   UNL     1       0.556  -2.058   1.214  1.00  0.00     0.284 C 
ATOM     16  H   UNL     1       2.240  -2.229   0.042  1.00  0.00     0.348 HD
ATOM     17  C   UNL     1       0.684  -0.515  -1.196  1.00  0.00     0.178 C 
ATOM     18  C   UNL     1       0.627  -0.529   1.224  1.00  0.00     0.178 C 
ATOM     19  N   UNL     1       0.002  -0.004   0.002  1.00  0.00    -0.360 N 
BRANCH  19  20
ATOM     20  C   UNL     1      -0.017   1.383   0.010  1.00  0.00     0.051 A 
ATOM     21  C   UNL     1      -1.230   2.068   0.019  1.00  0.00     0.076 A 
ATOM     22  C   UNL     1       1.180   2.103   0.002  1.00  0.00     0.027 A 
ATOM     23  C   UNL     1      -1.236   3.480   0.032  1.00  0.00     0.055 A 
ATOM     24  C   UNL     1      -2.644   1.658   0.037  1.00  0.00     0.263 C 
ATOM     25  C   UNL     1       1.165   3.481   0.010  1.00  0.00     0.003 A 
ATOM     26  C   UNL     1      -0.039   4.174   0.025  1.00  0.00     0.015 A 
ATOM     27  C   UNL     1      -2.659   3.877   0.048  1.00  0.00     0.261 C 
ATOM     28  O   UNL     1      -3.050   0.513   0.034  1.00  0.00    -0.268 OA
ATOM     29  N   UNL     1      -3.413   2.762   0.050  1.00  0.00    -0.270 N 
ATOM     30  O   UNL     1      -3.078   5.017   0.058  1.00  0.00    -0.269 OA
BRANCH  29  31
ATOM     31  C   UNL     1      -4.878   2.752   0.064  1.00  0.00     0.165 C 
BRANCH  31  32
ATOM     32  C   UNL     1      -5.394   2.755  -1.351  1.00  0.00    -0.025 A 
ATOM     33  C   UNL     1      -5.622   1.560  -2.006  1.00  0.00     0.044 A 
ATOM     34  C   UNL     1      -5.644   3.954  -1.993  1.00  0.00     0.006 A 
ATOM     35  C   UNL     1      -6.098   1.564  -3.307  1.00  0.00     0.123 A 
ATOM     36  C   UNL     1      -6.114   3.959  -3.293  1.00  0.00     0.003 A 
ATOM     37  C   UNL     1      -6.343   2.765  -3.950  1.00  0.00     0.039 A 
ATOM     38  F   UNL     1      -6.322   0.396  -3.948  1.00  0.00    -0.207 F 
ENDBRANCH  31  32
ENDBRANCH  29  31
ENDBRANCH  19  20
ENDBRANCH   2  13
TORSDOF 8
