REMARK SMILES Oc1ccc2c(c1)[C@@H](c1ccc(OCC[NH+]3CCCCC3)cc1)c1c(sc3cc(O)ccc13)C2
REMARK SMILES IDX 13 1 12 2 10 3 9 4 11 5 23 6 22 7 8 8 24 9 6 10 25 11 33 12
REMARK SMILES IDX 5 13 7 14 34 15 26 16 27 17 32 18 4 19 2 20 28 21 31 22 3 23
REMARK SMILES IDX 29 24 1 25 30 27 14 29 15 30 16 31 17 32 21 33 18 35 20 36
REMARK SMILES IDX 19 37
REMARK H PARENT 1 26 30 28 16 34
REMARK Flexibility Score: inf
ROOT
ATOM      1  O   UNL     1       8.290  -0.970  -3.284  1.00  0.00    -0.488 OA
ENDROOT
BRANCH   1   2
ATOM      2  C   UNL     1       7.664   0.125  -2.779  1.00  0.00     0.119 A 
ATOM      3  C   UNL     1       7.369   1.719  -1.012  1.00  0.00     0.008 A 
ATOM      4  C   UNL     1       6.387   2.354  -1.750  1.00  0.00    -0.036 A 
ATOM      5  C   UNL     1       8.004   0.603  -1.521  1.00  0.00     0.047 A 
ATOM      6  C   UNL     1       6.046   1.880  -3.003  1.00  0.00     0.008 A 
ATOM      7  C   UNL     1       6.682   0.767  -3.519  1.00  0.00     0.047 A 
BRANCH   4   8
ATOM      8  C   UNL     1       5.692   3.568  -1.190  1.00  0.00     0.081 C 
ATOM      9  C   UNL     1       4.957   3.178   0.082  1.00  0.00    -0.014 A 
ATOM     10  C   UNL     1       6.711   4.640  -0.922  1.00  0.00    -0.029 A 
ATOM     11  C   UNL     1       5.492   3.458   1.292  1.00  0.00     0.014 A 
ATOM     12  C   UNL     1       3.669   2.497   0.077  1.00  0.00    -0.003 A 
ATOM     13  C   UNL     1       7.222   4.910   0.327  1.00  0.00    -0.038 A 
ATOM     14  C   UNL     1       7.149   5.386  -2.012  1.00  0.00     0.051 A 
ATOM     15  C   UNL     1       6.789   4.147   1.554  1.00  0.00     0.082 C 
ATOM     16  S   UNL     1       4.325   2.837   2.476  1.00  0.00    -0.139 S 
ATOM     17  C   UNL     1       3.121   2.205   1.352  1.00  0.00     0.039 A 
ATOM     18  C   UNL     1       2.930   2.109  -1.069  1.00  0.00     0.014 A 
ATOM     19  C   UNL     1       8.166   5.915   0.492  1.00  0.00     0.008 A 
ATOM     20  C   UNL     1       8.088   6.388  -1.849  1.00  0.00     0.115 A 
ATOM     21  C   UNL     1       1.912   1.573   1.547  1.00  0.00     0.065 A 
ATOM     22  C   UNL     1       1.735   1.478  -0.867  1.00  0.00     0.047 A 
ATOM     23  C   UNL     1       8.601   6.654  -0.588  1.00  0.00     0.046 A 
ATOM     24  C   UNL     1       1.220   1.204   0.395  1.00  0.00     0.117 A 
BRANCH  20  25
ATOM     25  O   UNL     1       8.507   7.110  -2.921  1.00  0.00    -0.508 OA
ATOM     26  H   UNL     1       7.680   7.490  -3.311  1.00  0.00     0.293 HD
ENDBRANCH  20  25
BRANCH  24  27
ATOM     27  O   UNL     1       0.022   0.571   0.507  1.00  0.00    -0.508 OA
ATOM     28  H   UNL     1       0.128  -0.273   0.000  1.00  0.00     0.293 HD
ENDBRANCH  24  27
ENDBRANCH   4   8
ENDBRANCH   1   2
BRANCH   1  29
ATOM     29  C   UNL     1       9.291  -1.580  -2.466  1.00  0.00     0.290 C 
BRANCH  29  30
ATOM     30  C   UNL     1       9.880  -2.788  -3.196  1.00  0.00     0.304 C 
BRANCH  30  31
ATOM     31  N   UNL     1      10.569  -2.314  -4.414  1.00  0.00    -0.332 N 
ATOM     32  C   UNL     1      10.751  -3.435  -5.360  1.00  0.00     0.262 C 
ATOM     33  C   UNL     1      11.881  -1.733  -4.057  1.00  0.00     0.262 C 
ATOM     34  H   UNL     1       9.995  -1.587  -4.864  1.00  0.00     0.348 HD
ATOM     35  C   UNL     1      11.358  -2.896  -6.657  1.00  0.00     0.062 C 
ATOM     36  C   UNL     1      12.522  -1.143  -5.315  1.00  0.00     0.062 C 
ATOM     37  C   UNL     1      12.714  -2.253  -6.352  1.00  0.00     0.012 C 
ENDBRANCH  30  31
ENDBRANCH  29  30
ENDBRANCH   1  29
TORSDOF 7
