REMARK SMILES CC(C)[C@H](C)/C=C/C[C@@H](C)[C@@H]1CC[C@@H]2[C@@]1(C)CCC[C@@]21[C@@H]2CC3=C(C[C@@H](OC(=O)NC(N)=O)CC3)[C@@H]21
REMARK SMILES IDX 9 1 10 2 8 3 7 4 6 5 4 6 5 7 2 8 1 9 3 10 11 11 15 12 12 13
REMARK SMILES IDX 14 14 17 15 16 16 13 17 20 18 18 19 19 20 36 21 21 22 24 23
REMARK SMILES IDX 22 24 25 25 23 26 26 27 35 28 34 29 27 30 28 31 29 32 30 33
REMARK SMILES IDX 31 34 33 36 32 37
REMARK H PARENT 30 35 32 38 32 39
REMARK Flexibility Score: inf
ROOT
ATOM      1  C   UNL     1       6.846   4.976   0.273  1.00  0.00    -0.007 C 
ATOM      2  C   UNL     1       7.466   4.996   1.671  1.00  0.00     0.008 C 
ENDROOT
BRANCH   1   3
ATOM      3  C   UNL     1       6.184   6.326  -0.011  1.00  0.00     0.030 C 
BRANCH   3   4
ATOM      4  C   UNL     1       7.108   7.438   0.416  1.00  0.00    -0.031 C 
ATOM      5  C   UNL     1       7.451   8.369  -0.439  1.00  0.00    -0.028 C 
BRANCH   5   6
ATOM      6  C   UNL     1       8.375   9.481  -0.013  1.00  0.00     0.011 C 
ATOM      7  C   UNL     1       9.635   9.457  -0.879  1.00  0.00     0.012 C 
BRANCH   6   8
ATOM      8  C   UNL     1       7.665  10.826  -0.180  1.00  0.00    -0.011 C 
ATOM      9  C   UNL     1       6.405  10.849   0.687  1.00  0.00     0.008 C 
ATOM     10  C   UNL     1       8.603  11.954   0.253  1.00  0.00     0.008 C 
ENDBRANCH   6   8
ENDBRANCH   5   6
ENDBRANCH   3   4
ENDBRANCH   1   3
BRANCH   1  11
ATOM     11  C   UNL     1       5.794   3.867   0.198  1.00  0.00    -0.002 C 
ATOM     12  C   UNL     1       5.237   3.731  -1.237  1.00  0.00    -0.026 C 
ATOM     13  C   UNL     1       6.440   2.475   0.428  1.00  0.00     0.005 C 
ATOM     14  C   UNL     1       4.690   2.315  -1.315  1.00  0.00     0.002 C 
ATOM     15  C   UNL     1       4.282   4.846  -1.555  1.00  0.00     0.007 C 
ATOM     16  C   UNL     1       6.418   3.832  -2.206  1.00  0.00     0.012 C 
ATOM     17  C   UNL     1       5.481   1.490  -0.274  1.00  0.00     0.005 C 
ATOM     18  C   UNL     1       3.208   2.210  -0.968  1.00  0.00    -0.016 C 
ATOM     19  C   UNL     1       2.918   4.667  -0.900  1.00  0.00     0.001 C 
ATOM     20  C   UNL     1       2.310   3.354  -1.445  1.00  0.00     0.008 C 
ATOM     21  C   UNL     1       2.846   1.558   0.371  1.00  0.00     0.026 C 
ATOM     22  C   UNL     1       2.592   0.806  -0.945  1.00  0.00     0.008 C 
ATOM     23  C   UNL     1       1.493   1.837   0.975  1.00  0.00    -0.063 C 
ATOM     24  C   UNL     1       1.062   0.670  -0.997  1.00  0.00     0.035 C 
ATOM     25  C   UNL     1       1.280   2.577   2.281  1.00  0.00     0.076 C 
ATOM     26  C   UNL     1       0.526   1.361   0.233  1.00  0.00    -0.070 C 
ATOM     27  C   UNL     1      -0.141   2.304   2.780  1.00  0.00     0.183 C 
ATOM     28  C   UNL     1      -0.947   1.474   0.571  1.00  0.00     0.035 C 
ATOM     29  C   UNL     1      -1.129   2.558   1.637  1.00  0.00     0.050 C 
BRANCH  27  30
ATOM     30  O   UNL     1      -0.444   3.188   3.892  1.00  0.00    -0.446 OA
BRANCH  30  31
ATOM     31  C   UNL     1      -1.308   2.731   4.818  1.00  0.00     0.415 C 
ATOM     32  O   UNL     1      -1.795   1.625   4.701  1.00  0.00    -0.224 OA
ATOM     33  N   UNL     1      -1.632   3.502   5.875  1.00  0.00    -0.243 N 
ATOM     34  C   UNL     1      -2.497   3.045   6.802  1.00  0.00     0.321 C 
ATOM     35  H   UNL     1      -1.219   4.440   5.974  1.00  0.00     0.178 HD
ATOM     36  O   UNL     1      -2.984   1.938   6.685  1.00  0.00    -0.249 OA
ATOM     37  N   UNL     1      -2.821   3.815   7.859  1.00  0.00    -0.351 N 
ATOM     38  H   UNL     1      -2.408   4.754   7.958  1.00  0.00     0.161 HD
ATOM     39  H   UNL     1      -3.482   3.466   8.568  1.00  0.00     0.161 HD
ENDBRANCH  30  31
ENDBRANCH  27  30
ENDBRANCH   1  11
TORSDOF 7
