REMARK SMILES CCc1cc(-c2n[nH]c(C)c2-c2nc3ccccc3s2)c(O)c(C[N@@H+]2C[C@@]3(C)C[C@@H]2CC(C)(C)C3)c1O
REMARK SMILES IDX 3 1 4 2 5 3 21 4 23 5 36 6 2 7 1 8 37 9 24 11 25 12 26 13
REMARK SMILES IDX 30 14 27 16 29 17 31 18 35 19 28 20 32 21 33 22 34 23 6 24
REMARK SMILES IDX 7 25 11 26 8 27 9 28 10 30 12 31 20 32 13 33 19 34 14 35
REMARK SMILES IDX 18 36 15 37 17 38 16 39 22 40
REMARK H PARENT 37 10 25 15 8 29 22 41
REMARK Flexibility Score: inf
ROOT
ATOM      1  C   UNL     1      -0.812   1.800  -0.099  1.00  0.00    -0.005 A 
ATOM      2  C   UNL     1       0.507   1.403  -0.018  1.00  0.00     0.021 A 
ATOM      3  C   UNL     1       1.514   2.356   0.120  1.00  0.00     0.046 A 
ATOM      4  C   UNL     1       1.183   3.714   0.181  1.00  0.00     0.137 A 
ATOM      5  C   UNL     1      -0.143   4.103   0.104  1.00  0.00     0.091 A 
ATOM      6  C   UNL     1      -1.140   3.147  -0.034  1.00  0.00     0.131 A 
ENDROOT
BRANCH   1   7
ATOM      7  C   UNL     1      -1.899   0.768  -0.255  1.00  0.00     0.036 C 
ATOM      8  C   UNL     1      -2.238   0.603  -1.738  1.00  0.00     0.009 C 
ENDBRANCH   1   7
BRANCH   6   9
ATOM      9  O   UNL     1      -2.441   3.532  -0.109  1.00  0.00    -0.507 OA
ATOM     10  H   UNL     1      -2.895   3.044   0.623  1.00  0.00     0.293 HD
ENDBRANCH   6   9
BRANCH   5  11
ATOM     11  C   UNL     1      -0.505   5.564   0.169  1.00  0.00     0.307 C 
BRANCH  11  12
ATOM     12  N   UNL     1      -0.523   5.956   1.625  1.00  0.00    -0.328 N 
ATOM     13  C   UNL     1      -1.647   5.362   2.351  1.00  0.00     0.269 C 
ATOM     14  C   UNL     1      -0.581   7.421   1.817  1.00  0.00     0.185 C 
ATOM     15  H   UNL     1       0.364   5.595   2.003  1.00  0.00     0.348 HD
ATOM     16  C   UNL     1      -2.168   6.468   3.301  1.00  0.00     0.023 C 
ATOM     17  C   UNL     1      -1.006   7.501   3.313  1.00  0.00     0.077 C 
ATOM     18  C   UNL     1      -1.645   8.171   1.022  1.00  0.00     0.071 C 
ATOM     19  C   UNL     1      -3.364   7.161   2.648  1.00  0.00     0.019 C 
ATOM     20  C   UNL     1      -2.486   5.929   4.703  1.00  0.00     0.017 C 
ATOM     21  C   UNL     1      -3.075   7.726   1.268  1.00  0.00    -0.029 C 
ATOM     22  C   UNL     1      -3.959   8.996   1.123  1.00  0.00     0.011 C 
ATOM     23  C   UNL     1      -3.549   6.761   0.178  1.00  0.00     0.011 C 
ENDBRANCH  11  12
ENDBRANCH   5  11
BRANCH   3  24
ATOM     24  C   UNL     1       2.932   1.932   0.202  1.00  0.00     0.106 A 
ATOM     25  N   UNL     1       3.910   2.317  -0.588  1.00  0.00    -0.174 NA
ATOM     26  C   UNL     1       3.508   1.000   1.174  1.00  0.00     0.059 A 
ATOM     27  N   UNL     1       5.093   1.694  -0.177  1.00  0.00    -0.281 N 
ATOM     28  C   UNL     1       4.840   0.903   0.880  1.00  0.00     0.043 A 
ATOM     29  H   UNL     1       6.016   1.822  -0.616  1.00  0.00     0.190 HD
ATOM     30  C   UNL     1       5.848   0.056   1.613  1.00  0.00     0.067 C 
BRANCH  26  31
ATOM     31  C   UNL     1       2.791   0.303   2.260  1.00  0.00     0.128 A 
ATOM     32  S   UNL     1       1.059   0.388   2.695  1.00  0.00    -0.114 S 
ATOM     33  N   UNL     1       3.264  -0.534   3.158  1.00  0.00    -0.236 NA
ATOM     34  C   UNL     1       1.119  -0.739   4.067  1.00  0.00     0.055 A 
ATOM     35  C   UNL     1       2.486  -1.101   4.101  1.00  0.00     0.082 A 
ATOM     36  C   UNL     1       0.201  -1.232   4.962  1.00  0.00     0.021 A 
ATOM     37  C   UNL     1       2.865  -2.010   5.117  1.00  0.00     0.030 A 
ATOM     38  C   UNL     1       0.614  -2.118   5.940  1.00  0.00     0.002 A 
ATOM     39  C   UNL     1       1.949  -2.493   5.998  1.00  0.00     0.002 A 
ENDBRANCH  26  31
ENDBRANCH   3  24
BRANCH   4  40
ATOM     40  O   UNL     1       2.160   4.648   0.315  1.00  0.00    -0.507 OA
ATOM     41  H   UNL     1       2.770   4.489  -0.449  1.00  0.00     0.293 HD
ENDBRANCH   4  40
TORSDOF 7
