REMARK SMILES Oc1ccccc1C[NH+]1CCC(c2n[nH]cc2-c2cccc(C(F)(F)F)c2)CC1
REMARK SMILES IDX 9 1 10 2 11 3 12 4 28 5 29 6 8 8 7 9 5 10 6 11 4 12 3 13
REMARK SMILES IDX 2 14 1 15 13 17 17 18 14 19 16 20 15 21 18 23 27 24 19 25
REMARK SMILES IDX 22 26 20 27 21 28 23 29 24 30 25 31 26 32
REMARK H PARENT 9 7 1 16 15 22
REMARK Flexibility Score: inf
ROOT
ATOM      1  N   UNL     1      -3.550   6.314  -4.037  1.00  0.00    -0.331 N 
ATOM      2  C   UNL     1      -4.056   5.763  -2.773  1.00  0.00     0.263 C 
ATOM      3  C   UNL     1      -3.133   6.184  -1.627  1.00  0.00     0.071 C 
ATOM      4  C   UNL     1      -1.718   5.667  -1.901  1.00  0.00     0.052 C 
ATOM      5  C   UNL     1      -1.234   6.216  -3.245  1.00  0.00     0.071 C 
ATOM      6  C   UNL     1      -2.212   5.795  -4.345  1.00  0.00     0.263 C 
ATOM      7  H   UNL     1      -3.473   7.335  -3.926  1.00  0.00     0.348 HD
ENDROOT
BRANCH   1   8
ATOM      8  C   UNL     1      -4.485   6.047  -5.138  1.00  0.00     0.302 C 
BRANCH   8   9
ATOM      9  C   UNL     1      -3.831   6.402  -6.449  1.00  0.00     0.048 A 
ATOM     10  C   UNL     1      -3.523   7.932  -8.265  1.00  0.00     0.001 A 
ATOM     11  C   UNL     1      -4.126   7.603  -7.065  1.00  0.00     0.013 A 
ATOM     12  C   UNL     1      -2.632   7.056  -8.857  1.00  0.00     0.004 A 
ATOM     13  C   UNL     1      -2.337   5.852  -8.247  1.00  0.00     0.046 A 
ATOM     14  C   UNL     1      -2.937   5.522  -7.040  1.00  0.00     0.124 A 
BRANCH  14  15
ATOM     15  O   UNL     1      -2.649   4.338  -6.439  1.00  0.00    -0.507 OA
ATOM     16  H   UNL     1      -1.665   4.340  -6.330  1.00  0.00     0.293 HD
ENDBRANCH  14  15
ENDBRANCH   8   9
ENDBRANCH   1   8
BRANCH   4  17
ATOM     17  C   UNL     1      -0.792   6.129  -0.805  1.00  0.00     0.074 A 
ATOM     18  C   UNL     1      -0.071   5.329   0.031  1.00  0.00     0.023 A 
ATOM     19  N   UNL     1      -0.527   7.409  -0.474  1.00  0.00    -0.180 NA
ATOM     20  C   UNL     1       0.652   6.166   0.903  1.00  0.00     0.114 A 
ATOM     21  N   UNL     1       0.376   7.406   0.596  1.00  0.00    -0.285 N 
ATOM     22  H   UNL     1       0.759   8.241   1.062  1.00  0.00     0.189 HD
BRANCH  18  23
ATOM     23  C   UNL     1      -0.051   3.844   0.024  1.00  0.00    -0.014 A 
ATOM     24  C   UNL     1       1.163   3.161   0.009  1.00  0.00     0.022 A 
ATOM     25  C   UNL     1      -1.246   3.128   0.031  1.00  0.00     0.009 A 
ATOM     26  C   UNL     1       1.176   1.781   0.002  1.00  0.00     0.056 A 
ATOM     27  C   UNL     1      -1.222   1.749   0.018  1.00  0.00     0.001 A 
ATOM     28  C   UNL     1      -0.013   1.076   0.009  1.00  0.00     0.013 A 
BRANCH  26  29
ATOM     29  C   UNL     1       2.489   1.041  -0.014  1.00  0.00     0.416 C 
ATOM     30  F   UNL     1       2.248  -0.337  -0.018  1.00  0.00    -0.166 F 
ATOM     31  F   UNL     1       3.209   1.392  -1.161  1.00  0.00    -0.166 F 
ATOM     32  F   UNL     1       3.229   1.381   1.124  1.00  0.00    -0.166 F 
ENDBRANCH  26  29
ENDBRANCH  18  23
ENDBRANCH   4  17
TORSDOF 6
