REMARK SMILES C[C@@]12CCCC[C@@H]1CC[C@H]1[C@H]3CC[C@@](O)(C/N=C\c4cc([N+](=O)[O-])ccc4[O-])[C@@]3(C)CC[C@@H]12
REMARK SMILES IDX 16 1 14 2 1 3 2 4 7 5 33 6 3 7 6 8 8 9 10 10 32 11 4 12 5 13
REMARK SMILES IDX 9 14 11 15 31 16 29 17 12 18 30 19 13 20 15 21 17 23 18 24
REMARK SMILES IDX 19 25 27 26 20 27 26 28 28 29 21 30 25 31 22 32 24 33 23 34
REMARK H PARENT 15 22
REMARK Flexibility Score: inf
ROOT
ATOM      1  C   UNL     1       3.042   3.072   0.444  1.00  0.00     0.177 C 
ENDROOT
BRANCH   1   2
ATOM      2  C   UNL     1       3.404   3.692   1.795  1.00  0.00     0.090 C 
ATOM      3  C   UNL     1      -0.843   8.591   1.349  1.00  0.00     0.012 C 
ATOM      4  C   UNL     1       0.271   8.432   2.385  1.00  0.00    -0.027 C 
ATOM      5  C   UNL     1      -0.308   8.614   3.789  1.00  0.00    -0.005 C 
ATOM      6  C   UNL     1       0.887   7.036   2.263  1.00  0.00    -0.001 C 
ATOM      7  C   UNL     1       1.352   9.487   2.138  1.00  0.00     0.007 C 
ATOM      8  C   UNL     1      -0.921  10.011   3.910  1.00  0.00     0.004 C 
ATOM      9  C   UNL     1       0.806   8.455   4.826  1.00  0.00     0.004 C 
ATOM     10  C   UNL     1       1.999   6.878   3.300  1.00  0.00    -0.004 C 
ATOM     11  C   UNL     1       1.498   6.876   0.867  1.00  0.00     0.005 C 
ATOM     12  C   UNL     1       0.739  10.883   2.261  1.00  0.00     0.001 C 
ATOM     13  C   UNL     1       0.160  11.066   3.665  1.00  0.00     0.000 C 
ATOM     14  C   UNL     1       1.419   7.059   4.704  1.00  0.00     0.004 C 
ATOM     15  C   UNL     1       2.692   5.543   3.179  1.00  0.00     0.001 C 
ATOM     16  C   UNL     1       2.063   5.480   0.736  1.00  0.00     0.010 C 
ATOM     17  C   UNL     1       3.179   5.227   1.754  1.00  0.00     0.001 C 
ATOM     18  C   UNL     1       1.750   4.370   3.506  1.00  0.00     0.007 C 
ATOM     19  C   UNL     1       4.461   5.986   1.408  1.00  0.00     0.015 C 
ATOM     20  C   UNL     1       2.473   3.146   2.894  1.00  0.00     0.038 C 
BRANCH   2  21
ATOM     21  O   UNL     1       4.766   3.404   2.118  1.00  0.00    -0.387 OA
ATOM     22  H   UNL     1       4.980   3.793   3.003  1.00  0.00     0.211 HD
ENDBRANCH   2  21
ENDBRANCH   1   2
BRANCH   1  23
ATOM     23  N   UNL     1       3.917   3.621  -0.595  1.00  0.00    -0.290 NA
ATOM     24  C   UNL     1       3.691   3.350  -1.840  1.00  0.00     0.112 C 
BRANCH  24  25
ATOM     25  C   UNL     1       2.631   2.393  -2.206  1.00  0.00    -0.009 A 
ATOM     26  C   UNL     1       1.626   2.766  -3.108  1.00  0.00    -0.100 A 
ATOM     27  C   UNL     1       2.623   1.109  -1.655  1.00  0.00     0.094 A 
ATOM     28  C   UNL     1       0.633   1.858  -3.445  1.00  0.00    -0.001 A 
ATOM     29  O   UNL     1       1.624   4.010  -3.651  1.00  0.00    -0.872 OA
ATOM     30  C   UNL     1       1.631   0.218  -2.004  1.00  0.00     0.270 A 
ATOM     31  C   UNL     1       0.637   0.593  -2.893  1.00  0.00     0.085 A 
BRANCH  30  32
ATOM     32  N   UNL     1       1.627  -1.143  -1.424  1.00  0.00     0.062 N 
ATOM     33  O   UNL     1       2.547  -1.506  -0.713  1.00  0.00    -0.258 OA
ATOM     34  O   UNL     1       0.702  -1.902  -1.657  1.00  0.00    -0.258 OA
ENDBRANCH  30  32
ENDBRANCH  24  25
ENDBRANCH   1  23
TORSDOF 5
