REMARK SMILES Cc1cc(-c2csc(Cc3ccccn3)n2)c(C)n1-c1c(C)n(C)n(-c2ccccc2)c1=O
REMARK SMILES IDX 1 1 2 2 3 3 4 4 17 5 19 6 18 7 20 8 32 9 21 10 25 11 33 12
REMARK SMILES IDX 23 13 22 14 24 15 26 16 31 17 27 18 30 19 28 20 29 21 5 22
REMARK SMILES IDX 16 23 6 24 8 25 7 26 9 27 10 28 15 29 11 30 14 31 12 32
REMARK SMILES IDX 13 33
REMARK H PARENT
REMARK Flexibility Score: inf
ROOT
ATOM      1  C   UNL     1       1.654  -2.120  -0.671  1.00  0.00     0.065 C 
ATOM      2  C   UNL     1       1.349  -0.682  -0.339  1.00  0.00     0.021 A 
ATOM      3  C   UNL     1       2.248   0.320  -0.277  1.00  0.00     0.034 A 
ATOM      4  C   UNL     1       1.544   1.501   0.064  1.00  0.00     0.022 A 
ATOM      5  C   UNL     1       0.233   1.162   0.196  1.00  0.00     0.030 A 
ATOM      6  N   UNL     1       0.116  -0.175  -0.051  1.00  0.00    -0.311 N 
ATOM      7  C   UNL     1      -0.893   2.099   0.547  1.00  0.00     0.065 C 
ENDROOT
BRANCH   6   8
ATOM      8  C   UNL     1      -1.085  -0.912  -0.015  1.00  0.00     0.134 A 
ATOM      9  C   UNL     1      -1.623  -1.574   1.118  1.00  0.00     0.295 A 
ATOM     10  C   UNL     1      -1.923  -1.117  -1.056  1.00  0.00     0.062 A 
ATOM     11  N   UNL     1      -2.779  -2.157   0.741  1.00  0.00    -0.216 N 
ATOM     12  O   UNL     1      -1.132  -1.607   2.232  1.00  0.00    -0.265 OA
ATOM     13  N   UNL     1      -2.973  -1.881  -0.619  1.00  0.00    -0.283 N 
ATOM     14  C   UNL     1      -1.734  -0.595  -2.457  1.00  0.00     0.069 C 
ATOM     15  C   UNL     1      -4.105  -2.330  -1.433  1.00  0.00     0.172 C 
BRANCH  11  16
ATOM     16  C   UNL     1      -3.628  -2.910   1.558  1.00  0.00     0.067 A 
ATOM     17  C   UNL     1      -4.102  -4.141   1.123  1.00  0.00     0.028 A 
ATOM     18  C   UNL     1      -3.993  -2.431   2.809  1.00  0.00     0.028 A 
ATOM     19  C   UNL     1      -4.940  -4.882   1.933  1.00  0.00     0.002 A 
ATOM     20  C   UNL     1      -4.836  -3.175   3.612  1.00  0.00     0.002 A 
ATOM     21  C   UNL     1      -5.307  -4.400   3.176  1.00  0.00     0.000 A 
ENDBRANCH  11  16
ENDBRANCH   6   8
BRANCH   4  22
ATOM     22  C   UNL     1       2.127   2.855   0.243  1.00  0.00     0.083 A 
ATOM     23  N   UNL     1       1.364   3.890   0.557  1.00  0.00    -0.241 NA
ATOM     24  C   UNL     1       3.468   3.073   0.082  1.00  0.00     0.095 A 
ATOM     25  C   UNL     1       1.871   5.088   0.723  1.00  0.00     0.099 A 
ATOM     26  S   UNL     1       3.559   4.826   0.415  1.00  0.00    -0.126 S 
BRANCH  25  27
ATOM     27  C   UNL     1       1.165   6.370   1.083  1.00  0.00     0.123 C 
BRANCH  27  28
ATOM     28  C   UNL     1       1.138   6.525   2.582  1.00  0.00     0.047 A 
ATOM     29  N   UNL     1       0.631   5.562   3.328  1.00  0.00    -0.261 NA
ATOM     30  C   UNL     1       1.651   7.671   3.160  1.00  0.00     0.024 A 
ATOM     31  C   UNL     1       0.587   5.654   4.642  1.00  0.00     0.111 A 
ATOM     32  C   UNL     1       1.616   7.806   4.539  1.00  0.00     0.003 A 
ATOM     33  C   UNL     1       1.075   6.773   5.290  1.00  0.00     0.020 A 
ENDBRANCH  27  28
ENDBRANCH  25  27
ENDBRANCH   4  22
TORSDOF 5
