REMARK SMILES Cc1ccc(Cn2nc(C)c(C(=O)O[C@H](C)C(=O)NC(=O)NC3CCCCC3)c2Cl)cc1
REMARK SMILES IDX 12 1 13 2 11 3 7 4 8 5 29 6 9 7 30 8 10 9 6 10 5 11 1 12
REMARK SMILES IDX 2 13 32 14 3 15 31 16 4 17 14 18 15 19 16 20 17 21 18 22
REMARK SMILES IDX 19 23 20 24 21 26 22 27 23 29 28 30 24 31 27 32 25 33 26 34
REMARK H PARENT 19 25 22 28
REMARK Flexibility Score: inf
ROOT
ATOM      1  C   UNL     1       8.130   0.241   1.544  1.00  0.00     0.343 C 
ATOM      2  O   UNL     1       8.508   0.965   0.644  1.00  0.00    -0.246 OA
ENDROOT
BRANCH   1   3
ATOM      3  C   UNL     1       9.070  -0.696   2.179  1.00  0.00     0.119 A 
ATOM      4  N   UNL     1      10.238  -2.502   2.630  1.00  0.00    -0.248 N 
ATOM      5  N   UNL     1      10.577  -1.512   3.559  1.00  0.00    -0.176 NA
ATOM      6  C   UNL     1       9.314  -2.003   1.793  1.00  0.00     0.142 A 
ATOM      7  C   UNL     1       9.889  -0.434   3.301  1.00  0.00     0.076 A 
ATOM      8  Cl  UNL     1       8.566  -2.841   0.470  1.00  0.00    -0.062 Cl
ATOM      9  C   UNL     1       9.957   0.863   4.064  1.00  0.00     0.070 C 
BRANCH   4  10
ATOM     10  C   UNL     1      10.793  -3.856   2.583  1.00  0.00     0.181 C 
BRANCH  10  11
ATOM     11  C   UNL     1       9.950  -4.775   3.429  1.00  0.00    -0.026 A 
ATOM     12  C   UNL     1       7.558  -7.378   5.827  1.00  0.00     0.044 C 
ATOM     13  C   UNL     1       8.402  -6.460   4.980  1.00  0.00    -0.051 A 
ATOM     14  C   UNL     1       9.474  -5.793   5.543  1.00  0.00     0.004 A 
ATOM     15  C   UNL     1       8.104  -6.286   3.642  1.00  0.00     0.004 A 
ATOM     16  C   UNL     1      10.250  -4.954   4.766  1.00  0.00     0.006 A 
ATOM     17  C   UNL     1       8.878  -5.443   2.866  1.00  0.00     0.006 A 
ENDBRANCH  10  11
ENDBRANCH   4  10
ENDBRANCH   1   3
BRANCH   1  18
ATOM     18  O   UNL     1       6.850   0.298   1.962  1.00  0.00    -0.449 OA
BRANCH  18  19
ATOM     19  C   UNL     1       5.979   1.246   1.291  1.00  0.00     0.262 C 
ATOM     20  C   UNL     1       6.032   2.591   2.019  1.00  0.00     0.064 C 
BRANCH  19  21
ATOM     21  C   UNL     1       4.565   0.725   1.301  1.00  0.00     0.268 C 
ATOM     22  O   UNL     1       4.300  -0.295   1.901  1.00  0.00    -0.270 OA
ATOM     23  N   UNL     1       3.596   1.392   0.645  1.00  0.00    -0.275 N 
ATOM     24  C   UNL     1       2.331   0.926   0.654  1.00  0.00     0.321 C 
ATOM     25  H   UNL     1       3.821   2.259   0.136  1.00  0.00     0.174 HD
ATOM     26  O   UNL     1       2.065  -0.097   1.255  1.00  0.00    -0.248 OA
ATOM     27  N   UNL     1       1.362   1.593  -0.002  1.00  0.00    -0.335 N 
ATOM     28  H   UNL     1       1.587   2.459  -0.512  1.00  0.00     0.165 HD
BRANCH  27  29
ATOM     29  C   UNL     1      -0.013   1.086   0.008  1.00  0.00     0.083 C 
ATOM     30  C   UNL     1      -0.753   1.593  -1.232  1.00  0.00     0.025 C 
ATOM     31  C   UNL     1      -0.729   1.579   1.267  1.00  0.00     0.025 C 
ATOM     32  C   UNL     1      -2.188   1.063  -1.221  1.00  0.00     0.002 C 
ATOM     33  C   UNL     1      -2.164   1.050   1.278  1.00  0.00     0.002 C 
ATOM     34  C   UNL     1      -2.904   1.556   0.038  1.00  0.00     0.000 C 
ENDBRANCH  27  29
ENDBRANCH  19  21
ENDBRANCH  18  19
ENDBRANCH   1  18
TORSDOF 7
