REMARK SMILES Cc1ccc(-c2nc(SCC(=O)c3c[nH]c(C(=O)N4CCCC4)c3)[nH]c2-c2ccc(C)cc2)cc1
REMARK SMILES IDX 10 1 9 2 8 3 26 4 25 5 6 6 7 8 27 9 31 10 30 11 32 12 29 13
REMARK SMILES IDX 33 14 28 15 5 16 34 17 4 18 35 19 3 20 2 21 1 22 11 23 12 24
REMARK SMILES IDX 13 25 14 26 24 27 15 28 16 29 17 31 18 32 19 33 23 34 20 35
REMARK SMILES IDX 22 36 21 37
REMARK H PARENT 25 7 15 30
REMARK Flexibility Score: inf
ROOT
ATOM      1  C   UNL     1      -2.840  -0.068   0.015  1.00  0.00     0.159 C 
ENDROOT
BRANCH   1   2
ATOM      2  S   UNL     1      -4.633  -0.317   0.021  1.00  0.00    -0.080 SA
BRANCH   2   3
ATOM      3  C   UNL     1      -4.698  -2.078   0.013  1.00  0.00     0.166 A 
ATOM      4  C   UNL     1      -5.452  -4.154   0.005  1.00  0.00     0.074 A 
ATOM      5  N   UNL     1      -5.836  -2.826   0.019  1.00  0.00    -0.332 N 
ATOM      6  C   UNL     1      -4.071  -4.159   0.000  1.00  0.00     0.097 A 
ATOM      7  H   UNL     1      -6.802  -2.469   0.032  1.00  0.00     0.169 HD
ATOM      8  N   UNL     1      -3.657  -2.877   0.005  1.00  0.00    -0.222 NA
BRANCH   4   9
ATOM      9  C   UNL     1      -6.340  -5.332   0.003  1.00  0.00     0.000 A 
ATOM     10  C   UNL     1      -8.917  -8.745  -0.005  1.00  0.00     0.044 C 
ATOM     11  C   UNL     1      -8.009  -7.542  -0.002  1.00  0.00    -0.051 A 
ATOM     12  C   UNL     1      -6.920  -7.500  -0.855  1.00  0.00     0.004 A 
ATOM     13  C   UNL     1      -8.268  -6.486   0.853  1.00  0.00     0.004 A 
ATOM     14  C   UNL     1      -6.088  -6.400  -0.861  1.00  0.00     0.010 A 
ATOM     15  C   UNL     1      -7.442  -5.382   0.861  1.00  0.00     0.010 A 
ENDBRANCH   4   9
BRANCH   6  16
ATOM     16  C   UNL     1      -3.201  -5.358  -0.008  1.00  0.00     0.002 A 
ATOM     17  C   UNL     1      -1.992  -5.341  -0.704  1.00  0.00     0.011 A 
ATOM     18  C   UNL     1      -3.585  -6.506   0.685  1.00  0.00     0.011 A 
ATOM     19  C   UNL     1      -1.187  -6.462  -0.708  1.00  0.00     0.004 A 
ATOM     20  C   UNL     1      -2.773  -7.622   0.668  1.00  0.00     0.004 A 
ATOM     21  C   UNL     1      -1.576  -7.599  -0.024  1.00  0.00    -0.051 A 
ATOM     22  C   UNL     1      -0.691  -8.819  -0.032  1.00  0.00     0.044 C 
ENDBRANCH   6  16
ENDBRANCH   2   3
ENDBRANCH   1   2
BRANCH   1  23
ATOM     23  C   UNL     1      -2.538   1.408   0.021  1.00  0.00     0.174 C 
ATOM     24  O   UNL     1      -3.446   2.213   0.028  1.00  0.00    -0.293 OA
BRANCH  23  25
ATOM     25  C   UNL     1      -1.147   1.872   0.017  1.00  0.00     0.037 A 
ATOM     26  C   UNL     1      -0.013   1.076   0.008  1.00  0.00     0.094 A 
ATOM     27  C   UNL     1      -0.708   3.218   0.025  1.00  0.00     0.045 A 
ATOM     28  N   UNL     1       1.064   1.875   0.002  1.00  0.00    -0.356 N 
ATOM     29  C   UNL     1       0.654   3.192   0.012  1.00  0.00     0.105 A 
ATOM     30  H   UNL     1       2.043   1.556  -0.009  1.00  0.00     0.166 HD
BRANCH  29  31
ATOM     31  C   UNL     1       1.536   4.366   0.010  1.00  0.00     0.270 C 
ATOM     32  O   UNL     1       1.058   5.485   0.019  1.00  0.00    -0.267 OA
ATOM     33  N   UNL     1       2.874   4.204  -0.003  1.00  0.00    -0.337 N 
ATOM     34  C   UNL     1       3.871   5.290  -0.007  1.00  0.00     0.120 C 
ATOM     35  C   UNL     1       3.581   2.915  -0.009  1.00  0.00     0.120 C 
ATOM     36  C   UNL     1       5.151   4.655   0.592  1.00  0.00     0.023 C 
ATOM     37  C   UNL     1       5.093   3.222   0.002  1.00  0.00     0.023 C 
ENDBRANCH  29  31
ENDBRANCH  23  25
ENDBRANCH   1  23
TORSDOF 7
