REMARK SMILES N#Cc1c(CSCC(=O)Nc2ccccc2C(=O)NC2CCCC2)cc(O)n2c1nc1ccccc12
REMARK SMILES IDX 7 1 8 2 10 3 9 5 11 6 14 7 15 8 13 9 16 10 12 11 17 12 18 13
REMARK SMILES IDX 19 14 20 16 24 17 21 18 23 19 22 20 6 21 5 22 4 23 3 24
REMARK SMILES IDX 25 25 29 26 26 27 28 28 30 29 36 30 31 31 35 32 32 33 34 34
REMARK SMILES IDX 33 35 2 36 1 37 27 38
REMARK H PARENT 10 4 19 15 27 39
REMARK Flexibility Score: inf
ROOT
ATOM      1  C   UNL     1       5.941   3.121   1.451  1.00  0.00     0.170 C 
ENDROOT
BRANCH   1   2
ATOM      2  C   UNL     1       6.686   3.130   2.760  1.00  0.00     0.234 C 
ATOM      3  N   UNL     1       7.850   3.801   2.869  1.00  0.00    -0.325 N 
ATOM      4  H   UNL     1       8.273   4.237   2.037  1.00  0.00     0.169 HD
ATOM      5  O   UNL     1       6.239   2.533   3.716  1.00  0.00    -0.274 OA
BRANCH   3   6
ATOM      6  C   UNL     1       8.480   3.907   4.106  1.00  0.00     0.054 A 
ATOM      7  C   UNL     1       9.736   4.116   6.575  1.00  0.00     0.001 A 
ATOM      8  C   UNL     1      10.487   4.212   5.424  1.00  0.00     0.016 A 
ATOM      9  C   UNL     1       8.366   3.918   6.502  1.00  0.00     0.002 A 
ATOM     10  C   UNL     1       9.867   4.101   4.176  1.00  0.00     0.063 A 
ATOM     11  C   UNL     1       7.739   3.813   5.277  1.00  0.00     0.027 A 
BRANCH  10  12
ATOM     12  C   UNL     1      10.667   4.195   2.940  1.00  0.00     0.253 C 
ATOM     13  O   UNL     1      10.114   4.194   1.857  1.00  0.00    -0.269 OA
ATOM     14  N   UNL     1      12.010   4.282   3.011  1.00  0.00    -0.349 N 
ATOM     15  H   UNL     1      12.478   4.283   3.929  1.00  0.00     0.164 HD
BRANCH  14  16
ATOM     16  C   UNL     1      12.804   4.375   1.784  1.00  0.00     0.082 C 
ATOM     17  C   UNL     1      14.147   5.068   2.075  1.00  0.00     0.025 C 
ATOM     18  C   UNL     1      13.140   2.963   1.263  1.00  0.00     0.025 C 
ATOM     19  C   UNL     1      15.252   4.051   1.722  1.00  0.00     0.002 C 
ATOM     20  C   UNL     1      14.579   3.096   0.706  1.00  0.00     0.002 C 
ENDBRANCH  14  16
ENDBRANCH  10  12
ENDBRANCH   3   6
ENDBRANCH   1   2
BRANCH   1  21
ATOM     21  S   UNL     1       4.425   2.139   1.624  1.00  0.00    -0.147 SA
BRANCH  21  22
ATOM     22  C   UNL     1       3.655   2.228  -0.016  1.00  0.00     0.107 C 
BRANCH  22  23
ATOM     23  C   UNL     1       2.369   1.442  -0.010  1.00  0.00    -0.011 A 
ATOM     24  C   UNL     1       2.392   0.035  -0.032  1.00  0.00     0.100 A 
ATOM     25  C   UNL     1       1.166   2.086   0.018  1.00  0.00     0.072 A 
ATOM     26  C   UNL     1       1.183  -0.674  -0.025  1.00  0.00     0.159 A 
ATOM     27  C   UNL     1      -0.022   1.346   0.024  1.00  0.00     0.197 A 
ATOM     28  N   UNL     1       0.001  -0.001   0.002  1.00  0.00    -0.262 N 
ATOM     29  N   UNL     1       0.931  -2.016  -0.043  1.00  0.00    -0.227 NA
ATOM     30  C   UNL     1      -1.032  -0.938   0.002  1.00  0.00     0.076 A 
ATOM     31  C   UNL     1      -0.445  -2.203  -0.026  1.00  0.00     0.090 A 
ATOM     32  C   UNL     1      -2.414  -0.818   0.025  1.00  0.00     0.029 A 
ATOM     33  C   UNL     1      -1.247  -3.337  -0.032  1.00  0.00     0.030 A 
ATOM     34  C   UNL     1      -3.203  -1.951   0.019  1.00  0.00     0.002 A 
ATOM     35  C   UNL     1      -2.620  -3.207  -0.009  1.00  0.00     0.002 A 
BRANCH  24  36
ATOM     36  C   UNL     1       3.641  -0.666  -0.060  1.00  0.00     0.103 C 
ATOM     37  N   UNL     1       4.631  -1.223  -0.083  1.00  0.00    -0.192 NA
ENDBRANCH  24  36
BRANCH  27  38
ATOM     38  O   UNL     1      -1.094   1.929   0.043  1.00  0.00    -0.494 OA
ATOM     39  H   UNL     1      -1.075   2.526  -0.747  1.00  0.00     0.295 HD
ENDBRANCH  27  38
ENDBRANCH  22  23
ENDBRANCH  21  22
ENDBRANCH   1  21
TORSDOF 9
