REMARK SMILES CCCCCCn1c(S[C@@H](C)C(=O)NNC(=O)c2ccccc2)nnc1-c1c[nH]c2ccccc12
REMARK SMILES IDX 7 1 26 2 25 3 24 4 8 5 6 6 5 7 4 8 3 9 2 10 1 11 9 12 10 13
REMARK SMILES IDX 11 14 12 15 13 16 14 17 15 19 16 20 17 22 18 23 23 24 19 25
REMARK SMILES IDX 22 26 20 27 21 28 27 29 35 30 28 31 30 32 34 33 29 34 31 35
REMARK SMILES IDX 33 36 32 38
REMARK H PARENT 14 18 15 21 29 37
REMARK Flexibility Score: inf
ROOT
ATOM      1  N   UNL     1      -3.103   4.140  -0.043  1.00  0.00    -0.302 N 
ATOM      2  C   UNL     1      -1.752   4.193   0.212  1.00  0.00     0.166 A 
ATOM      3  N   UNL     1      -1.415   5.462   0.242  1.00  0.00    -0.129 NA
ATOM      4  N   UNL     1      -2.447   6.195   0.017  1.00  0.00    -0.123 NA
ATOM      5  C   UNL     1      -3.507   5.442  -0.161  1.00  0.00     0.192 A 
ENDROOT
BRANCH   1   6
ATOM      6  C   UNL     1      -3.935   2.941  -0.164  1.00  0.00     0.126 C 
BRANCH   6   7
ATOM      7  C   UNL     1      -4.412   2.509   1.224  1.00  0.00     0.022 C 
BRANCH   7   8
ATOM      8  C   UNL     1      -5.281   1.256   1.098  1.00  0.00     0.002 C 
BRANCH   8   9
ATOM      9  C   UNL     1      -5.758   0.824   2.486  1.00  0.00    -0.000 C 
BRANCH   9  10
ATOM     10  C   UNL     1      -6.627  -0.429   2.360  1.00  0.00    -0.003 C 
ATOM     11  C   UNL     1      -7.104  -0.861   3.748  1.00  0.00     0.004 C 
ENDBRANCH   9  10
ENDBRANCH   8   9
ENDBRANCH   7   8
ENDBRANCH   6   7
ENDBRANCH   1   6
BRANCH   5  12
ATOM     12  S   UNL     1      -5.144   6.003  -0.490  1.00  0.00    -0.073 SA
BRANCH  12  13
ATOM     13  C   UNL     1      -4.869   7.792  -0.494  1.00  0.00     0.142 C 
ATOM     14  C   UNL     1      -3.956   8.165  -1.663  1.00  0.00     0.030 C 
BRANCH  13  15
ATOM     15  C   UNL     1      -6.190   8.503  -0.641  1.00  0.00     0.251 C 
ATOM     16  O   UNL     1      -7.150   7.912  -1.089  1.00  0.00    -0.272 OA
ATOM     17  N   UNL     1      -6.304   9.795  -0.274  1.00  0.00    -0.266 N 
ATOM     18  H   UNL     1      -5.489  10.296   0.106  1.00  0.00     0.191 HD
BRANCH  17  19
ATOM     19  N   UNL     1      -7.531  10.456  -0.411  1.00  0.00    -0.263 N 
ATOM     20  C   UNL     1      -7.646  11.748  -0.045  1.00  0.00     0.269 C 
ATOM     21  H   UNL     1      -8.347   9.954  -0.792  1.00  0.00     0.191 HD
ATOM     22  O   UNL     1      -6.684  12.339   0.405  1.00  0.00    -0.267 OA
BRANCH  20  23
ATOM     23  C   UNL     1      -8.941  12.445  -0.189  1.00  0.00     0.041 A 
ATOM     24  C   UNL     1      -9.063  13.783   0.190  1.00  0.00     0.014 A 
ATOM     25  C   UNL     1     -10.046  11.771  -0.710  1.00  0.00     0.014 A 
ATOM     26  C   UNL     1     -10.274  14.428   0.052  1.00  0.00     0.001 A 
ATOM     27  C   UNL     1     -11.254  12.426  -0.837  1.00  0.00     0.001 A 
ATOM     28  C   UNL     1     -11.367  13.752  -0.460  1.00  0.00     0.000 A 
ENDBRANCH  20  23
ENDBRANCH  17  19
ENDBRANCH  13  15
ENDBRANCH  12  13
ENDBRANCH   5  12
BRANCH   2  29
ATOM     29  C   UNL     1      -0.852   3.041   0.419  1.00  0.00     0.045 A 
ATOM     30  C   UNL     1       0.147   2.886   1.490  1.00  0.00     0.010 A 
ATOM     31  C   UNL     1      -0.780   1.920  -0.344  1.00  0.00     0.095 A 
ATOM     32  C   UNL     1       0.755   1.638   1.276  1.00  0.00     0.046 A 
ATOM     33  C   UNL     1       0.548   3.683   2.561  1.00  0.00     0.011 A 
ATOM     34  N   UNL     1       0.168   1.079   0.161  1.00  0.00    -0.360 N 
ATOM     35  C   UNL     1       1.755   1.208   2.143  1.00  0.00     0.027 A 
ATOM     36  C   UNL     1       1.540   3.240   3.407  1.00  0.00     0.001 A 
ATOM     37  H   UNL     1       0.411   0.159  -0.233  1.00  0.00     0.166 HD
ATOM     38  C   UNL     1       2.140   2.007   3.198  1.00  0.00     0.002 A 
ENDBRANCH   2  29
TORSDOF 11
