REMARK SMILES CC1CCN(Cc2nc(NCC(C)(C)[NH+]3CCN(C)CC3)c3c4c(sc3n2)CCC4)CC1
REMARK SMILES IDX 10 1 9 3 7 4 27 5 8 6 26 7 22 8 25 9 23 10 24 11 30 12 28 13
REMARK SMILES IDX 29 14 6 15 5 16 1 17 2 18 32 19 3 20 31 21 4 22 11 23 12 24
REMARK SMILES IDX 13 25 14 26 15 27 21 28 16 29 20 31 17 32 18 33 19 34
REMARK H PARENT 10 2 15 30
REMARK Flexibility Score: inf
ROOT
ATOM      1  N   UNL     1      -3.072   6.539  -4.452  1.00  0.00    -0.363 N 
ATOM      2  H   UNL     1      -3.510   6.922  -5.302  1.00  0.00     0.162 HD
ENDROOT
BRANCH   1   3
ATOM      3  C   UNL     1      -1.807   5.984  -4.515  1.00  0.00     0.139 A 
ATOM      4  C   UNL     1      -0.028   4.952  -3.452  1.00  0.00     0.146 A 
ATOM      5  N   UNL     1       0.676   4.886  -4.566  1.00  0.00    -0.220 NA
ATOM      6  N   UNL     1      -1.235   5.489  -3.429  1.00  0.00    -0.214 NA
ATOM      7  C   UNL     1       0.177   5.351  -5.695  1.00  0.00     0.129 A 
ATOM      8  C   UNL     1      -1.101   5.936  -5.749  1.00  0.00     0.057 A 
ATOM      9  S   UNL     1       0.748   5.462  -7.369  1.00  0.00    -0.120 S 
ATOM     10  C   UNL     1      -1.533   6.419  -7.070  1.00  0.00    -0.021 A 
ATOM     11  C   UNL     1      -0.672   6.256  -8.087  1.00  0.00     0.011 A 
ATOM     12  C   UNL     1      -2.795   7.097  -7.612  1.00  0.00     0.038 C 
ATOM     13  C   UNL     1      -1.218   6.789  -9.386  1.00  0.00     0.047 C 
ATOM     14  C   UNL     1      -2.385   7.709  -8.967  1.00  0.00     0.010 C 
BRANCH   4  15
ATOM     15  C   UNL     1       0.561   4.409  -2.176  1.00  0.00     0.162 C 
BRANCH  15  16
ATOM     16  N   UNL     1       0.196   2.993  -2.032  1.00  0.00    -0.296 NA
ATOM     17  C   UNL     1      -1.168  -0.849  -0.749  1.00  0.00     0.008 C 
ATOM     18  C   UNL     1      -0.859   0.649  -0.716  1.00  0.00    -0.012 C 
ATOM     19  C   UNL     1       0.645   0.866  -0.904  1.00  0.00     0.019 C 
ATOM     20  C   UNL     1      -1.613   1.352  -1.848  1.00  0.00     0.019 C 
ATOM     21  C   UNL     1       0.940   2.367  -0.932  1.00  0.00     0.085 C 
ATOM     22  C   UNL     1      -1.253   2.839  -1.848  1.00  0.00     0.085 C 
ENDBRANCH  15  16
ENDBRANCH   4  15
ENDBRANCH   1   3
BRANCH   1  23
ATOM     23  C   UNL     1      -3.790   6.582  -3.175  1.00  0.00     0.182 C 
BRANCH  23  24
ATOM     24  C   UNL     1      -5.203   7.125  -3.402  1.00  0.00     0.109 C 
ATOM     25  C   UNL     1      -5.993   6.141  -4.268  1.00  0.00     0.080 C 
ATOM     26  C   UNL     1      -5.906   7.297  -2.054  1.00  0.00     0.080 C 
BRANCH  24  27
ATOM     27  N   UNL     1      -5.125   8.423  -4.084  1.00  0.00    -0.327 N 
ATOM     28  C   UNL     1      -6.467   8.960  -4.349  1.00  0.00     0.278 C 
ATOM     29  C   UNL     1      -4.322   9.379  -3.308  1.00  0.00     0.278 C 
ATOM     30  H   UNL     1      -4.657   8.277  -4.990  1.00  0.00     0.348 HD
ATOM     31  C   UNL     1      -6.345  10.272  -5.128  1.00  0.00     0.145 C 
ATOM     32  C   UNL     1      -4.200  10.690  -4.088  1.00  0.00     0.145 C 
ATOM     33  N   UNL     1      -5.542  11.227  -4.352  1.00  0.00    -0.295 NA
ATOM     34  C   UNL     1      -5.464  12.526  -5.034  1.00  0.00     0.105 C 
ENDBRANCH  24  27
ENDBRANCH  23  24
ENDBRANCH   1  23
TORSDOF 6
