REMARK SMILES COc1ccc(NC(=O)[C@@H](c2ccccc2)N2CCC(C(=O)Nc3ccccc3O)CC2)cc1
REMARK SMILES IDX 17 1 18 2 19 3 20 4 31 5 32 6 10 7 8 8 7 9 9 11 6 12 3 13
REMARK SMILES IDX 34 14 4 15 33 16 5 17 2 18 1 19 11 20 16 21 12 22 15 23
REMARK SMILES IDX 13 24 14 25 21 26 22 27 23 28 24 30 29 31 25 32 28 33 26 34
REMARK SMILES IDX 27 35 30 36
REMARK H PARENT 7 10 23 29 30 37
REMARK Flexibility Score: inf
ROOT
ATOM      1  N   UNL     1       0.565  -0.070  -0.064  1.00  0.00    -0.288 NA
ATOM      2  C   UNL     1       1.521  -0.167  -1.174  1.00  0.00     0.086 C 
ATOM      3  C   UNL     1       2.102  -1.581  -1.228  1.00  0.00     0.029 C 
ATOM      4  C   UNL     1       2.800  -1.892   0.099  1.00  0.00     0.081 C 
ATOM      5  C   UNL     1       1.795  -1.737   1.244  1.00  0.00     0.029 C 
ATOM      6  C   UNL     1       1.223  -0.317   1.226  1.00  0.00     0.086 C 
ENDROOT
BRANCH   1   7
ATOM      7  C   UNL     1      -0.115   1.232  -0.066  1.00  0.00     0.177 C 
BRANCH   7   8
ATOM      8  C   UNL     1      -0.730   1.475  -1.421  1.00  0.00     0.246 C 
ATOM      9  N   UNL     1      -0.912   2.736  -1.862  1.00  0.00    -0.324 N 
ATOM     10  H   UNL     1      -0.555   3.530  -1.312  1.00  0.00     0.170 HD
ATOM     11  O   UNL     1      -1.060   0.536  -2.114  1.00  0.00    -0.273 OA
BRANCH   9  12
ATOM     12  C   UNL     1      -1.586   2.965  -3.068  1.00  0.00     0.041 A 
ATOM     13  C   UNL     1      -2.921   3.419  -5.451  1.00  0.00     0.119 A 
ATOM     14  C   UNL     1      -1.887   4.259  -5.065  1.00  0.00     0.048 A 
ATOM     15  C   UNL     1      -3.286   2.351  -4.645  1.00  0.00     0.048 A 
ATOM     16  C   UNL     1      -1.224   4.036  -3.874  1.00  0.00     0.030 A 
ATOM     17  C   UNL     1      -2.621   2.124  -3.456  1.00  0.00     0.030 A 
BRANCH  13  18
ATOM     18  O   UNL     1      -3.576   3.642  -6.622  1.00  0.00    -0.497 OA
ATOM     19  C   UNL     1      -3.147   4.760  -7.402  1.00  0.00     0.278 C 
ENDBRANCH  13  18
ENDBRANCH   9  12
ENDBRANCH   7   8
BRANCH   7  20
ATOM     20  C   UNL     1      -1.196   1.236   0.984  1.00  0.00    -0.021 A 
ATOM     21  C   UNL     1      -1.327   2.317   1.836  1.00  0.00     0.006 A 
ATOM     22  C   UNL     1      -2.059   0.162   1.092  1.00  0.00     0.006 A 
ATOM     23  C   UNL     1      -2.319   2.321   2.799  1.00  0.00     0.000 A 
ATOM     24  C   UNL     1      -3.047   0.164   2.058  1.00  0.00     0.000 A 
ATOM     25  C   UNL     1      -3.179   1.245   2.910  1.00  0.00     0.000 A 
ENDBRANCH   7  20
ENDBRANCH   1   7
BRANCH   4  26
ATOM     26  C   UNL     1       3.322  -3.305   0.075  1.00  0.00     0.227 C 
ATOM     27  O   UNL     1       2.930  -4.111   0.893  1.00  0.00    -0.274 OA
ATOM     28  N   UNL     1       4.225  -3.675  -0.855  1.00  0.00    -0.323 N 
ATOM     29  H   UNL     1       4.507  -3.011  -1.590  1.00  0.00     0.170 HD
BRANCH  28  30
ATOM     30  C   UNL     1       4.779  -4.961  -0.822  1.00  0.00     0.083 A 
ATOM     31  C   UNL     1       6.056  -5.185  -1.330  1.00  0.00     0.139 A 
ATOM     32  C   UNL     1       4.054  -6.017  -0.287  1.00  0.00     0.030 A 
ATOM     33  C   UNL     1       6.601  -6.458  -1.290  1.00  0.00     0.048 A 
ATOM     34  C   UNL     1       4.602  -7.285  -0.256  1.00  0.00     0.002 A 
ATOM     35  C   UNL     1       5.873  -7.505  -0.756  1.00  0.00     0.004 A 
BRANCH  31  36
ATOM     36  O   UNL     1       6.769  -4.155  -1.860  1.00  0.00    -0.506 OA
ATOM     37  H   UNL     1       6.812  -3.478  -1.139  1.00  0.00     0.293 HD
ENDBRANCH  31  36
ENDBRANCH  28  30
ENDBRANCH   4  26
TORSDOF 8
