REMARK SMILES O=C1CN(c2ccc(C[NH2+]Cc3cn(Cc4ccccc4)nc3-c3cc4ccccc4o3)cc2)CCN1
REMARK SMILES IDX 11 1 12 2 14 3 22 4 13 5 23 6 15 7 16 8 19 9 20 10 18 11
REMARK SMILES IDX 21 12 17 13 24 14 32 15 25 16 31 17 26 18 30 19 27 20 29 21
REMARK SMILES IDX 28 22 10 23 9 26 8 27 33 28 7 29 34 30 6 31 5 32 4 33 3 34
REMARK SMILES IDX 35 35 2 36 36 37 37 38 1 39
REMARK H PARENT 10 24 10 25 37 40
REMARK Flexibility Score: inf
ROOT
ATOM      1  C   UNL     1       4.122   4.941  -1.435  1.00  0.00     0.301 C 
ENDROOT
BRANCH   1   2
ATOM      2  C   UNL     1       4.508   5.186  -2.871  1.00  0.00     0.055 A 
ATOM      3  N   UNL     1       5.474   5.010  -4.824  1.00  0.00    -0.267 N 
ATOM      4  N   UNL     1       4.572   6.079  -4.887  1.00  0.00    -0.169 NA
ATOM      5  C   UNL     1       5.415   4.482  -3.582  1.00  0.00     0.119 A 
ATOM      6  C   UNL     1       3.981   6.187  -3.714  1.00  0.00     0.136 A 
BRANCH   3   7
ATOM      7  C   UNL     1       6.332   4.543  -5.916  1.00  0.00     0.179 C 
BRANCH   7   8
ATOM      8  C   UNL     1       5.486   4.237  -7.124  1.00  0.00    -0.027 A 
ATOM      9  C   UNL     1       3.933   3.675  -9.342  1.00  0.00     0.000 A 
ATOM     10  C   UNL     1       4.190   2.687  -8.410  1.00  0.00     0.000 A 
ATOM     11  C   UNL     1       4.453   4.944  -9.166  1.00  0.00     0.000 A 
ATOM     12  C   UNL     1       4.971   2.967  -7.303  1.00  0.00     0.005 A 
ATOM     13  C   UNL     1       5.229   5.225  -8.057  1.00  0.00     0.005 A 
ENDBRANCH   7   8
ENDBRANCH   3   7
BRANCH   6  14
ATOM     14  C   UNL     1       2.953   7.183  -3.345  1.00  0.00     0.156 A 
ATOM     15  O   UNL     1       1.917   6.955  -2.514  1.00  0.00    -0.454 OA
ATOM     16  C   UNL     1       2.908   8.459  -3.796  1.00  0.00     0.061 A 
ATOM     17  C   UNL     1       1.158   8.061  -2.376  1.00  0.00     0.134 A 
ATOM     18  C   UNL     1       1.731   9.069  -3.173  1.00  0.00     0.021 A 
ATOM     19  C   UNL     1       0.009   8.344  -1.649  1.00  0.00     0.048 A 
ATOM     20  C   UNL     1       1.146  10.334  -3.228  1.00  0.00     0.012 A 
ATOM     21  C   UNL     1      -0.554   9.600  -1.716  1.00  0.00     0.004 A 
ATOM     22  C   UNL     1       0.015  10.591  -2.504  1.00  0.00     0.001 A 
ENDBRANCH   6  14
ENDBRANCH   1   2
BRANCH   1  23
ATOM     23  N   UNL     1       2.860   4.192  -1.388  1.00  0.00    -0.339 N 
ATOM     24  H   UNL     1       2.124   4.735  -1.862  1.00  0.00     0.346 HD
ATOM     25  H   UNL     1       2.978   3.294  -1.878  1.00  0.00     0.346 HD
BRANCH  23  26
ATOM     26  C   UNL     1       2.452   3.935  -0.000  1.00  0.00     0.297 C 
BRANCH  26  27
ATOM     27  C   UNL     1       1.156   3.166   0.008  1.00  0.00     0.006 A 
ATOM     28  C   UNL     1      -0.049   3.845   0.023  1.00  0.00     0.012 A 
ATOM     29  C   UNL     1       1.173   1.783   0.000  1.00  0.00     0.012 A 
ATOM     30  C   UNL     1      -1.239   3.144   0.031  1.00  0.00     0.026 A 
ATOM     31  C   UNL     1      -0.013   1.076   0.008  1.00  0.00     0.026 A 
ATOM     32  C   UNL     1      -1.224   1.755   0.017  1.00  0.00     0.037 A 
BRANCH  32  33
ATOM     33  N   UNL     1      -2.426   1.042   0.019  1.00  0.00    -0.360 N 
ATOM     34  C   UNL     1      -2.483   0.109   1.152  1.00  0.00     0.216 C 
ATOM     35  C   UNL     1      -3.580   1.955   0.055  1.00  0.00     0.138 C 
ATOM     36  C   UNL     1      -3.840  -0.531   1.222  1.00  0.00     0.239 C 
ATOM     37  C   UNL     1      -4.848   1.156  -0.255  1.00  0.00     0.137 C 
ATOM     38  N   UNL     1      -4.908  -0.034   0.590  1.00  0.00    -0.353 N 
ATOM     39  O   UNL     1      -3.973  -1.542   1.880  1.00  0.00    -0.273 OA
ATOM     40  H   UNL     1      -5.814  -0.510   0.704  1.00  0.00     0.163 HD
ENDBRANCH  32  33
ENDBRANCH  26  27
ENDBRANCH  23  26
ENDBRANCH   1  23
TORSDOF 8
