REMARK SMILES O=C(OCC(=O)N(/N=C/c1ccccc1)c1cccc(C(F)(F)F)c1)c1ccc(-c2ccc(O)cc2)cc1
REMARK SMILES IDX 4 1 5 2 6 3 7 4 8 5 9 6 10 7 13 8 14 9 12 10 15 11 11 12
REMARK SMILES IDX 16 13 25 14 17 15 20 16 18 17 19 18 21 19 22 20 23 21 24 22
REMARK SMILES IDX 3 23 2 24 1 25 26 26 38 27 27 28 37 29 28 30 29 31 30 32
REMARK SMILES IDX 36 33 31 34 35 35 32 36 33 37 34 38
REMARK H PARENT 34 39
REMARK Flexibility Score: inf
ROOT
ATOM      1  C   UNL     1       0.991   7.456   0.273  1.00  0.00     0.335 C 
ENDROOT
BRANCH   1   2
ATOM      2  C   UNL     1       1.068   5.957   0.134  1.00  0.00     0.285 C 
ATOM      3  O   UNL     1       2.147   5.404   0.118  1.00  0.00    -0.269 OA
BRANCH   2   4
ATOM      4  N   UNL     1      -0.063   5.232   0.026  1.00  0.00    -0.198 N 
BRANCH   4   5
ATOM      5  N   UNL     1      -1.304   5.877  -0.065  1.00  0.00    -0.173 NA
ATOM      6  C   UNL     1      -2.399   5.181  -0.056  1.00  0.00     0.142 C 
BRANCH   6   7
ATOM      7  C   UNL     1      -3.706   5.864  -0.044  1.00  0.00    -0.006 A 
ATOM      8  C   UNL     1      -6.161   7.147  -0.021  1.00  0.00     0.000 A 
ATOM      9  C   UNL     1      -4.995   7.892  -0.031  1.00  0.00     0.001 A 
ATOM     10  C   UNL     1      -6.106   5.764  -0.023  1.00  0.00     0.001 A 
ATOM     11  C   UNL     1      -3.769   7.260  -0.037  1.00  0.00     0.010 A 
ATOM     12  C   UNL     1      -4.887   5.119  -0.035  1.00  0.00     0.010 A 
ENDBRANCH   6   7
ENDBRANCH   4   5
BRANCH   4  13
ATOM     13  C   UNL     1       0.002   3.834   0.006  1.00  0.00     0.069 A 
ATOM     14  C   UNL     1      -0.575   3.126  -1.040  1.00  0.00     0.041 A 
ATOM     15  C   UNL     1       0.643   3.152   1.032  1.00  0.00     0.028 A 
ATOM     16  C   UNL     1      -0.504   1.747  -1.061  1.00  0.00     0.058 A 
ATOM     17  C   UNL     1       0.706   1.773   1.008  1.00  0.00     0.003 A 
ATOM     18  C   UNL     1       0.131   1.070  -0.035  1.00  0.00     0.013 A 
BRANCH  16  19
ATOM     19  C   UNL     1      -1.123   0.978  -2.199  1.00  0.00     0.416 C 
ATOM     20  F   UNL     1      -0.929  -0.393  -1.997  1.00  0.00    -0.166 F 
ATOM     21  F   UNL     1      -2.494   1.251  -2.255  1.00  0.00    -0.166 F 
ATOM     22  F   UNL     1      -0.522   1.361  -3.403  1.00  0.00    -0.166 F 
ENDBRANCH  16  19
ENDBRANCH   4  13
ENDBRANCH   2   4
ENDBRANCH   1   2
BRANCH   1  23
ATOM     23  O   UNL     1       2.333   8.002   0.370  1.00  0.00    -0.452 OA
BRANCH  23  24
ATOM     24  C   UNL     1       2.441   9.339   0.500  1.00  0.00     0.338 C 
ATOM     25  O   UNL     1       1.442  10.029   0.531  1.00  0.00    -0.246 OA
BRANCH  24  26
ATOM     26  C   UNL     1       3.773   9.965   0.605  1.00  0.00     0.060 A 
ATOM     27  C   UNL     1       3.886  11.351   0.739  1.00  0.00     0.016 A 
ATOM     28  C   UNL     1       4.923   9.170   0.575  1.00  0.00     0.016 A 
ATOM     29  C   UNL     1       5.130  11.934   0.837  1.00  0.00     0.009 A 
ATOM     30  C   UNL     1       6.165   9.755   0.668  1.00  0.00     0.009 A 
ATOM     31  C   UNL     1       6.277  11.140   0.802  1.00  0.00    -0.018 A 
BRANCH  31  32
ATOM     32  C   UNL     1       7.615  11.768   0.908  1.00  0.00    -0.018 A 
ATOM     33  C   UNL     1       8.763  10.977   0.873  1.00  0.00     0.012 A 
ATOM     34  C   UNL     1       7.729  13.152   1.038  1.00  0.00     0.012 A 
ATOM     35  C   UNL     1      10.006  11.564   0.972  1.00  0.00     0.047 A 
ATOM     36  C   UNL     1       8.975  13.733   1.142  1.00  0.00     0.047 A 
ATOM     37  C   UNL     1      10.116  12.942   1.107  1.00  0.00     0.115 A 
BRANCH  37  38
ATOM     38  O   UNL     1      11.343  13.518   1.205  1.00  0.00    -0.508 OA
ATOM     39  H   UNL     1      11.318  14.028   2.053  1.00  0.00     0.293 HD
ENDBRANCH  37  38
ENDBRANCH  31  32
ENDBRANCH  24  26
ENDBRANCH  23  24
ENDBRANCH   1  23
TORSDOF 11
