REMARK SMILES CC(C)(C)c1ccc(C(=O)N2CCC([C@@]3(Cc4ccccc4Cl)[N-]C(=O)NC3=O)CC2)cc1
REMARK SMILES IDX 9 1 10 2 11 3 12 4 13 5 14 6 30 7 31 8 8 9 5 10 33 11 6 12
REMARK SMILES IDX 32 13 7 14 2 15 1 16 3 17 4 18 15 19 24 20 28 21 25 22 29 23
REMARK SMILES IDX 27 24 26 25 16 27 17 28 22 29 18 30 21 31 23 32 19 33 20 34
REMARK H PARENT 27 26
REMARK Flexibility Score: inf
ROOT
ATOM      1  C   UNL     1      -0.515   5.159   0.494  1.00  0.00     0.253 C 
ATOM      2  O   UNL     1       0.577   5.662   0.672  1.00  0.00    -0.269 OA
ATOM      3  N   UNL     1      -1.597   5.942   0.309  1.00  0.00    -0.339 N 
ATOM      4  C   UNL     1      -2.937   5.352   0.197  1.00  0.00     0.120 C 
ATOM      5  C   UNL     1      -3.593   5.849  -1.090  1.00  0.00     0.026 C 
ATOM      6  C   UNL     1      -3.576   7.379  -1.111  1.00  0.00     0.006 C 
ATOM      7  C   UNL     1      -2.128   7.875  -1.082  1.00  0.00     0.026 C 
ATOM      8  C   UNL     1      -1.456   7.401   0.211  1.00  0.00     0.120 C 
ENDROOT
BRANCH   1   9
ATOM      9  C   UNL     1      -0.657   3.687   0.479  1.00  0.00     0.040 A 
ATOM     10  C   UNL     1      -0.923   0.931   0.451  1.00  0.00    -0.043 A 
ATOM     11  C   UNL     1      -1.798   1.700   1.197  1.00  0.00     0.005 A 
ATOM     12  C   UNL     1       0.088   1.533  -0.277  1.00  0.00     0.005 A 
ATOM     13  C   UNL     1      -1.671   3.073   1.215  1.00  0.00     0.014 A 
ATOM     14  C   UNL     1       0.223   2.906  -0.272  1.00  0.00     0.014 A 
BRANCH  10  15
ATOM     15  C   UNL     1      -1.067  -0.569   0.436  1.00  0.00    -0.013 C 
ATOM     16  C   UNL     1      -2.447  -0.943  -0.109  1.00  0.00     0.016 C 
ATOM     17  C   UNL     1       0.016  -1.177  -0.458  1.00  0.00     0.016 C 
ATOM     18  C   UNL     1      -0.917  -1.110   1.859  1.00  0.00     0.016 C 
ENDBRANCH  10  15
ENDBRANCH   1   9
BRANCH   6  19
ATOM     19  C   UNL     1      -4.260   7.880  -2.384  1.00  0.00     0.043 C 
ATOM     20  N   UNL     1      -4.350   9.350  -2.381  1.00  0.00    -0.416 NA
ATOM     21  C   UNL     1      -3.409   7.578  -3.602  1.00  0.00     0.153 C 
ATOM     22  C   UNL     1      -3.648   9.781  -3.444  1.00  0.00     0.159 C 
ATOM     23  O   UNL     1      -3.067   6.487  -4.004  1.00  0.00    -0.299 OA
ATOM     24  N   UNL     1      -3.109   8.775  -4.143  1.00  0.00    -0.395 N 
ATOM     25  O   UNL     1      -3.517  10.953  -3.737  1.00  0.00    -0.299 OA
ATOM     26  H   UNL     1      -2.537   8.901  -4.990  1.00  0.00     0.032 HD
BRANCH  19  27
ATOM     27  C   UNL     1      -5.650   7.256  -2.527  1.00  0.00     0.051 C 
BRANCH  27  28
ATOM     28  C   UNL     1      -6.530   7.726  -1.398  1.00  0.00    -0.028 A 
ATOM     29  C   UNL     1      -7.254   8.898  -1.527  1.00  0.00     0.044 A 
ATOM     30  C   UNL     1      -6.619   6.984  -0.235  1.00  0.00     0.005 A 
ATOM     31  C   UNL     1      -8.063   9.328  -0.490  1.00  0.00     0.021 A 
ATOM     32  Cl  UNL     1      -7.149   9.827  -2.990  1.00  0.00    -0.084 Cl
ATOM     33  C   UNL     1      -7.423   7.417   0.802  1.00  0.00     0.000 A 
ATOM     34  C   UNL     1      -8.147   8.588   0.674  1.00  0.00     0.002 A 
ENDBRANCH  27  28
ENDBRANCH  19  27
ENDBRANCH   6  19
TORSDOF 5
