REMARK SMILES Cc1ccc(-n2nc(C)c3c(C(=O)NCC4CC[NH+](CCc5cccs5)CC4)cc(C)nc32)cc1
REMARK SMILES IDX 16 1 17 2 18 3 27 4 28 5 19 6 15 8 14 9 12 10 13 11 11 13
REMARK SMILES IDX 6 14 7 15 33 16 8 17 32 18 10 19 9 20 30 21 29 22 31 23 5 24
REMARK SMILES IDX 1 25 2 26 35 27 3 28 34 29 4 30 20 31 21 32 22 33 26 34
REMARK SMILES IDX 23 35 25 36 24 37
REMARK H PARENT 19 7 14 12
REMARK Flexibility Score: inf
ROOT
ATOM      1  C   UNL     1      -1.367  -4.806   1.298  1.00  0.00     0.019 C 
ATOM      2  C   UNL     1      -1.716  -4.336   2.713  1.00  0.00     0.067 C 
ATOM      3  C   UNL     1      -3.076  -4.910   3.115  1.00  0.00     0.262 C 
ATOM      4  C   UNL     1      -2.738  -6.852   1.705  1.00  0.00     0.262 C 
ATOM      5  C   UNL     1      -1.367  -6.336   1.261  1.00  0.00     0.067 C 
ATOM      6  N   UNL     1      -3.003  -6.386   3.083  1.00  0.00    -0.335 N 
ATOM      7  H   UNL     1      -2.232  -6.695   3.694  1.00  0.00     0.348 HD
ENDROOT
BRANCH   1   8
ATOM      8  C   UNL     1       0.019  -4.285   0.913  1.00  0.00     0.120 C 
BRANCH   8   9
ATOM      9  N   UNL     1      -0.013  -2.823   0.832  1.00  0.00    -0.352 N 
ATOM     10  C   UNL     1       1.103  -2.141   0.506  1.00  0.00     0.252 C 
ATOM     11  O   UNL     1       2.136  -2.740   0.280  1.00  0.00    -0.269 OA
ATOM     12  H   UNL     1      -0.889  -2.316   1.023  1.00  0.00     0.163 HD
BRANCH  10  13
ATOM     13  C   UNL     1       1.070  -0.665   0.424  1.00  0.00     0.054 A 
ATOM     14  N   UNL     1       3.454   1.940  -0.023  1.00  0.00    -0.214 N 
ATOM     15  N   UNL     1       4.307   0.831  -0.065  1.00  0.00    -0.171 NA
ATOM     16  C   UNL     1       2.171   1.487   0.162  1.00  0.00     0.164 A 
ATOM     17  C   UNL     1       3.615  -0.263   0.085  1.00  0.00     0.070 A 
ATOM     18  N   UNL     1       0.997   2.091   0.273  1.00  0.00    -0.233 NA
ATOM     19  C   UNL     1       2.254   0.081   0.234  1.00  0.00     0.055 A 
ATOM     20  C   UNL     1       4.174  -1.662   0.096  1.00  0.00     0.069 C 
ATOM     21  C   UNL     1      -0.119   1.419   0.451  1.00  0.00     0.041 A 
ATOM     22  C   UNL     1      -0.130   0.035   0.533  1.00  0.00     0.038 A 
ATOM     23  C   UNL     1      -1.420   2.172   0.563  1.00  0.00     0.067 C 
BRANCH  14  24
ATOM     24  C   UNL     1       3.841   3.280  -0.149  1.00  0.00     0.067 A 
ATOM     25  C   UNL     1       5.024   7.369  -0.535  1.00  0.00     0.044 C 
ATOM     26  C   UNL     1       4.607   5.927  -0.399  1.00  0.00    -0.051 A 
ATOM     27  C   UNL     1       3.396   5.507  -0.919  1.00  0.00     0.005 A 
ATOM     28  C   UNL     1       5.436   5.027   0.244  1.00  0.00     0.005 A 
ATOM     29  C   UNL     1       3.013   4.186  -0.800  1.00  0.00     0.029 A 
ATOM     30  C   UNL     1       5.057   3.705   0.371  1.00  0.00     0.029 A 
ENDBRANCH  14  24
ENDBRANCH  10  13
ENDBRANCH   8   9
ENDBRANCH   1   8
BRANCH   6  31
ATOM     31  C   UNL     1      -4.269  -6.965   3.577  1.00  0.00     0.267 C 
BRANCH  31  32
ATOM     32  C   UNL     1      -4.666  -6.266   4.879  1.00  0.00     0.108 C 
BRANCH  32  33
ATOM     33  C   UNL     1      -5.943  -6.870   5.404  1.00  0.00     0.010 A 
ATOM     34  S   UNL     1      -7.631  -6.393   5.074  1.00  0.00    -0.149 S 
ATOM     35  C   UNL     1      -6.108  -7.919   6.246  1.00  0.00     0.015 A 
ATOM     36  C   UNL     1      -8.442  -7.620   6.085  1.00  0.00     0.065 A 
ATOM     37  C   UNL     1      -7.389  -8.300   6.599  1.00  0.00     0.012 A 
ENDBRANCH  32  33
ENDBRANCH  31  32
ENDBRANCH   6  31
TORSDOF 7
