REMARK SMILES CC(C)COc1cccc(-c2cc(C(=O)NC(=S)NNC(=O)c3cccs3)c3ccccc3n2)c1
REMARK SMILES IDX 11 1 12 2 13 3 28 4 29 5 30 6 31 7 32 8 33 9 34 10 10 11
REMARK SMILES IDX 6 12 35 13 7 14 8 15 9 16 5 17 4 18 2 19 1 20 3 21 14 22
REMARK SMILES IDX 15 23 16 24 17 26 18 27 19 28 20 30 21 31 22 33 23 34 27 35
REMARK SMILES IDX 24 36 26 37 25 38
REMARK H PARENT 16 25 19 29 20 32
REMARK Flexibility Score: inf
ROOT
ATOM      1  C   UNL     1      -0.076   5.330   0.044  1.00  0.00     0.072 A 
ATOM      2  C   UNL     1      -1.316   5.987   0.060  1.00  0.00     0.043 A 
ATOM      3  C   UNL     1      -1.352   7.374   0.054  1.00  0.00     0.051 A 
ATOM      4  C   UNL     1      -0.070   8.080   0.031  1.00  0.00     0.013 A 
ATOM      5  C   UNL     1      -0.004   9.477   0.024  1.00  0.00     0.011 A 
ATOM      6  C   UNL     1       1.212  10.094   0.002  1.00  0.00     0.001 A 
ATOM      7  C   UNL     1       2.389   9.350  -0.012  1.00  0.00     0.002 A 
ATOM      8  C   UNL     1       2.361   7.989  -0.005  1.00  0.00     0.029 A 
ATOM      9  C   UNL     1       1.125   7.317   0.017  1.00  0.00     0.072 A 
ATOM     10  N   UNL     1       1.066   5.984   0.029  1.00  0.00    -0.248 NA
ENDROOT
BRANCH   1  11
ATOM     11  C   UNL     1      -0.051   3.848   0.052  1.00  0.00     0.004 A 
ATOM     12  C   UNL     1       1.182   1.784   0.044  1.00  0.00     0.119 A 
ATOM     13  C   UNL     1       1.166   3.169   0.037  1.00  0.00     0.056 A 
ATOM     14  C   UNL     1      -0.012   1.076   0.066  1.00  0.00     0.046 A 
ATOM     15  C   UNL     1      -1.219   1.748   0.076  1.00  0.00     0.005 A 
ATOM     16  C   UNL     1      -1.245   3.129   0.074  1.00  0.00     0.010 A 
BRANCH  12  17
ATOM     17  O   UNL     1       2.367   1.119   0.030  1.00  0.00    -0.493 OA
BRANCH  17  18
ATOM     18  C   UNL     1       2.309  -0.309   0.039  1.00  0.00     0.232 C 
BRANCH  18  19
ATOM     19  C   UNL     1       3.729  -0.877   0.021  1.00  0.00     0.020 C 
ATOM     20  C   UNL     1       3.671  -2.400   0.156  1.00  0.00     0.011 C 
ATOM     21  C   UNL     1       4.409  -0.508  -1.299  1.00  0.00     0.011 C 
ENDBRANCH  18  19
ENDBRANCH  17  18
ENDBRANCH  12  17
ENDBRANCH   1  11
BRANCH   3  22
ATOM     22  C   UNL     1      -2.634   8.110   0.070  1.00  0.00     0.258 C 
ATOM     23  O   UNL     1      -2.639   9.321   0.169  1.00  0.00    -0.269 OA
ATOM     24  N   UNL     1      -3.798   7.438  -0.025  1.00  0.00    -0.298 N 
ATOM     25  H   UNL     1      -3.795   6.411  -0.109  1.00  0.00     0.172 HD
BRANCH  24  26
ATOM     26  C   UNL     1      -4.967   8.108  -0.010  1.00  0.00     0.192 C 
ATOM     27  S   UNL     1      -4.973   9.815   0.129  1.00  0.00    -0.039 S 
BRANCH  26  28
ATOM     28  N   UNL     1      -6.131   7.436  -0.105  1.00  0.00    -0.274 N 
ATOM     29  H   UNL     1      -7.025   7.948  -0.093  1.00  0.00     0.190 HD
BRANCH  28  30
ATOM     30  N   UNL     1      -6.126   6.039  -0.219  1.00  0.00    -0.263 N 
ATOM     31  C   UNL     1      -7.290   5.367  -0.313  1.00  0.00     0.279 C 
ATOM     32  H   UNL     1      -5.233   5.527  -0.230  1.00  0.00     0.191 HD
ATOM     33  O   UNL     1      -8.346   5.973  -0.300  1.00  0.00    -0.266 OA
BRANCH  31  34
ATOM     34  C   UNL     1      -7.285   3.906  -0.432  1.00  0.00     0.094 A 
ATOM     35  S   UNL     1      -5.897   2.786  -0.476  1.00  0.00    -0.139 S 
ATOM     36  C   UNL     1      -8.358   3.034  -0.534  1.00  0.00     0.026 A 
ATOM     37  C   UNL     1      -6.770   1.296  -0.627  1.00  0.00     0.065 A 
ATOM     38  C   UNL     1      -8.068   1.696  -0.640  1.00  0.00     0.012 A 
ENDBRANCH  31  34
ENDBRANCH  28  30
ENDBRANCH  26  28
ENDBRANCH  24  26
ENDBRANCH   3  22
TORSDOF 9
