REMARK SMILES O=C(Nc1cc(O)n(-c2ccccc2)n1)c1cc2ccccc2n1C[C@H]1CCC[N@@H+](Cc2cccs2)C1
REMARK SMILES IDX 16 1 17 2 18 3 19 4 20 5 21 6 22 7 23 8 24 9 2 10 3 11 1 13
REMARK SMILES IDX 4 14 8 15 15 16 6 17 5 18 9 19 12 20 13 21 11 22 14 23 10 24
REMARK SMILES IDX 7 25 25 27 26 28 37 29 27 30 30 31 28 32 29 33 31 35 32 36
REMARK SMILES IDX 36 37 33 38 35 39 34 40
REMARK H PARENT 3 12 7 26 30 34
REMARK Flexibility Score: inf
ROOT
ATOM      1  C   UNL     1       1.238   2.006   0.221  1.00  0.00     0.108 A 
ATOM      2  C   UNL     1       2.482   1.458   0.234  1.00  0.00     0.042 A 
ATOM      3  C   UNL     1       3.408   2.485  -0.068  1.00  0.00     0.000 A 
ATOM      4  C   UNL     1       4.803   2.516  -0.194  1.00  0.00     0.010 A 
ATOM      5  C   UNL     1       5.431   3.687  -0.502  1.00  0.00     0.001 A 
ATOM      6  C   UNL     1       4.700   4.853  -0.693  1.00  0.00     0.002 A 
ATOM      7  C   UNL     1       3.328   4.848  -0.576  1.00  0.00     0.027 A 
ATOM      8  C   UNL     1       2.665   3.666  -0.262  1.00  0.00     0.049 A 
ATOM      9  N   UNL     1       1.338   3.349  -0.085  1.00  0.00    -0.336 N 
ENDROOT
BRANCH   1  10
ATOM     10  C   UNL     1      -0.015   1.283   0.485  1.00  0.00     0.273 C 
ATOM     11  N   UNL     1       0.003  -0.053   0.662  1.00  0.00    -0.304 N 
ATOM     12  H   UNL     1       0.900  -0.558   0.684  1.00  0.00     0.171 HD
ATOM     13  O   UNL     1      -1.066   1.892   0.549  1.00  0.00    -0.267 OA
BRANCH  11  14
ATOM     14  C   UNL     1      -1.199  -0.754   0.815  1.00  0.00     0.159 A 
ATOM     15  N   UNL     1      -2.678  -2.358   1.102  1.00  0.00    -0.199 N 
ATOM     16  N   UNL     1      -1.316  -2.050   0.987  1.00  0.00    -0.147 NA
ATOM     17  C   UNL     1      -3.380  -1.200   0.984  1.00  0.00     0.216 A 
ATOM     18  C   UNL     1      -2.486  -0.193   0.805  1.00  0.00     0.117 A 
BRANCH  15  19
ATOM     19  C   UNL     1      -3.220  -3.635   1.299  1.00  0.00     0.069 A 
ATOM     20  C   UNL     1      -4.292  -6.156   1.686  1.00  0.00     0.000 A 
ATOM     21  C   UNL     1      -4.895  -5.054   2.264  1.00  0.00     0.002 A 
ATOM     22  C   UNL     1      -3.155  -6.001   0.915  1.00  0.00     0.002 A 
ATOM     23  C   UNL     1      -4.359  -3.795   2.078  1.00  0.00     0.028 A 
ATOM     24  C   UNL     1      -2.618  -4.744   0.720  1.00  0.00     0.028 A 
ENDBRANCH  15  19
BRANCH  17  25
ATOM     25  O   UNL     1      -4.731  -1.072   1.034  1.00  0.00    -0.493 OA
ATOM     26  H   UNL     1      -4.951  -1.501   1.899  1.00  0.00     0.295 HD
ENDBRANCH  17  25
ENDBRANCH  11  14
ENDBRANCH   1  10
BRANCH   9  27
ATOM     27  C   UNL     1       0.216   4.284  -0.199  1.00  0.00     0.132 C 
BRANCH  27  28
ATOM     28  C   UNL     1      -0.150   4.813   1.189  1.00  0.00     0.064 C 
ATOM     29  C   UNL     1      -1.399   5.691   1.088  1.00  0.00     0.267 C 
ATOM     30  C   UNL     1       1.010   5.646   1.742  1.00  0.00     0.017 C 
ATOM     31  N   UNL     1      -1.739   6.216   2.417  1.00  0.00    -0.330 N 
ATOM     32  C   UNL     1       0.612   6.221   3.104  1.00  0.00     0.062 C 
ATOM     33  C   UNL     1      -0.659   7.058   2.947  1.00  0.00     0.262 C 
ATOM     34  H   UNL     1      -1.853   5.414   3.052  1.00  0.00     0.348 HD
BRANCH  31  35
ATOM     35  C   UNL     1      -3.011   6.951   2.383  1.00  0.00     0.310 C 
BRANCH  35  36
ATOM     36  C   UNL     1      -3.206   7.678   3.689  1.00  0.00     0.059 A 
ATOM     37  S   UNL     1      -4.012   7.115   5.179  1.00  0.00    -0.143 S 
ATOM     38  C   UNL     1      -2.820   8.930   4.034  1.00  0.00     0.021 A 
ATOM     39  C   UNL     1      -3.772   8.584   6.165  1.00  0.00     0.065 A 
ATOM     40  C   UNL     1      -3.111   9.395   5.303  1.00  0.00     0.012 A 
ENDBRANCH  35  36
ENDBRANCH  31  35
ENDBRANCH  27  28
ENDBRANCH   9  27
TORSDOF 8
