REMARK SMILES CCCNC(=O)NC(=O)[C@@H](C)Sc1nc2ccccc2c(=O)n1-c1ccccc1C(C)C
REMARK SMILES IDX 10 1 11 2 8 3 4 4 5 5 6 7 7 8 9 10 3 11 2 12 1 13 12 14
REMARK SMILES IDX 13 15 23 16 14 17 21 18 15 19 20 20 22 21 16 22 19 23 17 24
REMARK SMILES IDX 18 25 24 26 29 27 25 28 28 29 26 30 27 31 30 32 31 33 32 34
REMARK H PARENT 4 6 7 9
REMARK Flexibility Score: inf
ROOT
ATOM      1  C   UNL     1       3.267   4.474  -3.896  1.00  0.00     0.141 C 
ATOM      2  C   UNL     1       3.271   5.999  -3.774  1.00  0.00     0.030 C 
ENDROOT
BRANCH   1   3
ATOM      3  C   UNL     1       2.830   4.082  -5.285  1.00  0.00     0.241 C 
ATOM      4  N   UNL     1       4.244   3.629  -8.527  1.00  0.00    -0.338 N 
ATOM      5  C   UNL     1       3.342   3.681  -7.527  1.00  0.00     0.321 C 
ATOM      6  H   UNL     1       5.231   3.857  -8.342  1.00  0.00     0.165 HD
ATOM      7  O   UNL     1       2.177   3.412  -7.744  1.00  0.00    -0.248 OA
ATOM      8  N   UNL     1       3.732   4.031  -6.285  1.00  0.00    -0.277 N 
ATOM      9  H   UNL     1       4.720   4.259  -6.101  1.00  0.00     0.174 HD
ATOM     10  O   UNL     1       1.668   3.814  -5.502  1.00  0.00    -0.273 OA
BRANCH   4  11
ATOM     11  C   UNL     1       3.820   3.249  -9.877  1.00  0.00     0.117 C 
BRANCH  11  12
ATOM     12  C   UNL     1       5.027   3.269 -10.815  1.00  0.00     0.018 C 
ATOM     13  C   UNL     1       4.585   2.872 -12.225  1.00  0.00     0.006 C 
ENDBRANCH  11  12
ENDBRANCH   4  11
ENDBRANCH   1   3
BRANCH   1  14
ATOM     14  S   UNL     1       2.119   3.775  -2.684  1.00  0.00    -0.074 SA
BRANCH  14  15
ATOM     15  C   UNL     1       2.929   4.244  -1.190  1.00  0.00     0.176 A 
ATOM     16  N   UNL     1       2.357   3.889   0.000  1.00  0.00    -0.255 N 
ATOM     17  N   UNL     1       4.050   4.915  -1.272  1.00  0.00    -0.223 NA
ATOM     18  C   UNL     1       2.941   4.233   1.172  1.00  0.00     0.266 A 
ATOM     19  C   UNL     1       4.723   5.306  -0.165  1.00  0.00     0.079 A 
ATOM     20  C   UNL     1       4.203   4.982   1.109  1.00  0.00     0.066 A 
ATOM     21  O   UNL     1       2.441   3.929   2.239  1.00  0.00    -0.268 OA
ATOM     22  C   UNL     1       5.920   6.024  -0.250  1.00  0.00     0.029 A 
ATOM     23  C   UNL     1       4.883   5.377   2.259  1.00  0.00     0.016 A 
ATOM     24  C   UNL     1       6.566   6.399   0.894  1.00  0.00     0.002 A 
ATOM     25  C   UNL     1       6.052   6.078   2.144  1.00  0.00     0.001 A 
BRANCH  16  26
ATOM     26  C   UNL     1       1.155   3.170   0.008  1.00  0.00     0.055 A 
ATOM     27  C   UNL     1      -0.059   3.845   0.022  1.00  0.00    -0.021 A 
ATOM     28  C   UNL     1       1.174   1.782   0.000  1.00  0.00     0.027 A 
ATOM     29  C   UNL     1      -1.243   3.133   0.030  1.00  0.00     0.006 A 
ATOM     30  C   UNL     1      -0.013   1.076   0.008  1.00  0.00     0.002 A 
ATOM     31  C   UNL     1      -1.220   1.750   0.017  1.00  0.00     0.000 A 
BRANCH  27  32
ATOM     32  C   UNL     1      -0.085   5.351   0.030  1.00  0.00     0.015 C 
ATOM     33  C   UNL     1      -0.827   5.855  -1.210  1.00  0.00     0.012 C 
ATOM     34  C   UNL     1      -0.803   5.843   1.288  1.00  0.00     0.012 C 
ENDBRANCH  27  32
ENDBRANCH  16  26
ENDBRANCH  14  15
ENDBRANCH   1  14
TORSDOF 7
