REMARK SMILES CCOc1ccccc1C1=C(C(=O)NCCCN2CC[NH+](C)CC2)[C@@H](c2ccc(Cl)cc2F)ON1
REMARK SMILES IDX 12 1 13 2 14 3 11 5 10 6 35 7 25 8 34 9 9 11 4 12 5 13 8 14
REMARK SMILES IDX 6 15 7 16 3 17 2 18 1 19 26 20 32 21 27 22 31 23 33 24 28 25
REMARK SMILES IDX 29 26 30 27 15 28 16 29 17 30 18 31 24 32 19 33 23 34 20 35
REMARK SMILES IDX 21 36 22 37
REMARK H PARENT 14 4 35 10 21 38
REMARK Flexibility Score: inf
ROOT
ATOM      1  C   UNL     1       1.354   1.834  -0.199  1.00  0.00     0.252 C 
ATOM      2  O   UNL     1       1.494   2.870  -0.815  1.00  0.00    -0.269 OA
ATOM      3  N   UNL     1       2.411   1.268   0.416  1.00  0.00    -0.352 N 
ATOM      4  H   UNL     1       2.309   0.352   0.877  1.00  0.00     0.163 HD
ENDROOT
BRANCH   1   5
ATOM      5  C   UNL     1      -0.001   1.180  -0.123  1.00  0.00     0.079 C 
ATOM      6  C   UNL     1      -0.897   1.665  -1.247  1.00  0.00     0.083 C 
ATOM      7  N   UNL     1      -2.116   1.337  -0.958  1.00  0.00    -0.265 N 
ATOM      8  C   UNL     1      -0.914   0.188   0.637  1.00  0.00     0.220 C 
ATOM      9  O   UNL     1      -2.227   0.665   0.281  1.00  0.00    -0.263 OA
ATOM     10  H   UNL     1      -2.921   1.545  -1.567  1.00  0.00     0.195 HD
BRANCH   6  11
ATOM     11  C   UNL     1      -0.828   1.231  -2.655  1.00  0.00     0.043 A 
ATOM     12  C   UNL     1      -1.782   1.679  -3.578  1.00  0.00     0.128 A 
ATOM     13  C   UNL     1      -1.707   1.266  -4.899  1.00  0.00     0.047 A 
ATOM     14  C   UNL     1       0.193   0.376  -3.077  1.00  0.00     0.014 A 
ATOM     15  C   UNL     1      -0.696   0.416  -5.302  1.00  0.00     0.004 A 
ATOM     16  C   UNL     1       0.249  -0.030  -4.393  1.00  0.00     0.001 A 
BRANCH  12  17
ATOM     17  O   UNL     1      -2.775   2.515  -3.180  1.00  0.00    -0.493 OA
BRANCH  17  18
ATOM     18  C   UNL     1      -3.711   2.930  -4.177  1.00  0.00     0.226 C 
ATOM     19  C   UNL     1      -4.748   3.862  -3.546  1.00  0.00     0.049 C 
ENDBRANCH  17  18
ENDBRANCH  12  17
ENDBRANCH   6  11
BRANCH   8  20
ATOM     20  C   UNL     1      -0.692   0.281   2.124  1.00  0.00     0.024 A 
ATOM     21  C   UNL     1       0.325  -0.447   2.719  1.00  0.00     0.130 A 
ATOM     22  C   UNL     1      -1.499   1.097   2.894  1.00  0.00     0.011 A 
ATOM     23  C   UNL     1       0.529  -0.361   4.086  1.00  0.00     0.060 A 
ATOM     24  F   UNL     1       1.118  -1.240   1.966  1.00  0.00    -0.207 F 
ATOM     25  C   UNL     1      -1.299   1.179   4.259  1.00  0.00     0.021 A 
ATOM     26  C   UNL     1      -0.283   0.452   4.856  1.00  0.00     0.043 A 
ATOM     27  Cl  UNL     1      -0.029   0.560   6.569  1.00  0.00    -0.084 Cl
ENDBRANCH   8  20
ENDBRANCH   1   5
BRANCH   3  28
ATOM     28  C   UNL     1       3.705   1.954   0.430  1.00  0.00     0.117 C 
BRANCH  28  29
ATOM     29  C   UNL     1       4.726   1.103   1.187  1.00  0.00     0.037 C 
BRANCH  29  30
ATOM     30  C   UNL     1       6.078   1.820   1.201  1.00  0.00     0.087 C 
BRANCH  30  31
ATOM     31  N   UNL     1       7.058   1.003   1.929  1.00  0.00    -0.292 NA
ATOM     32  C   UNL     1       8.417   1.538   1.763  1.00  0.00     0.146 C 
ATOM     33  C   UNL     1       6.706   0.900   3.352  1.00  0.00     0.146 C 
ATOM     34  C   UNL     1       9.415   0.617   2.467  1.00  0.00     0.277 C 
ATOM     35  C   UNL     1       7.704  -0.021   4.056  1.00  0.00     0.277 C 
ATOM     36  N   UNL     1       9.063   0.514   3.890  1.00  0.00    -0.335 N 
ATOM     37  C   UNL     1      10.043  -0.303   4.618  1.00  0.00     0.332 C 
ATOM     38  H   UNL     1       9.082   1.462   4.292  1.00  0.00     0.347 HD
ENDBRANCH  30  31
ENDBRANCH  29  30
ENDBRANCH  28  29
ENDBRANCH   3  28
TORSDOF 9
