REMARK SMILES NC(=O)C1CCN(C(=O)c2ccc(-n3c(-c4ccccc4)cc4c3CCCCC4)cc2)CC1
REMARK SMILES IDX 15 1 22 2 23 3 24 4 14 5 16 6 19 7 20 8 18 9 21 10 17 11
REMARK SMILES IDX 13 12 30 13 12 14 31 15 11 16 10 17 8 18 9 19 7 20 32 21
REMARK SMILES IDX 6 22 33 23 5 24 4 25 2 26 3 27 1 28 25 31 26 32 27 33 29 35
REMARK SMILES IDX 28 36
REMARK H PARENT 1 29 1 30
REMARK Flexibility Score: 90.00
ROOT
ATOM      1  C   UNL     1       3.045   0.710  -1.288  1.00  0.00     0.053 A 
ATOM      2  C   UNL     1       4.179   0.054  -0.903  1.00  0.00     0.032 A 
ATOM      3  C   UNL     1       4.292   0.209   0.483  1.00  0.00    -0.026 A 
ATOM      4  C   UNL     1       3.251   0.943   0.909  1.00  0.00     0.027 A 
ATOM      5  N   UNL     1       2.471   1.258  -0.162  1.00  0.00    -0.313 N 
ENDROOT
BRANCH   1   6
ATOM      6  C   UNL     1       2.525   0.814  -2.668  1.00  0.00    -0.002 A 
ATOM      7  C   UNL     1       1.552   1.009  -5.253  1.00  0.00     0.000 A 
ATOM      8  C   UNL     1       2.436  -0.003  -4.925  1.00  0.00     0.001 A 
ATOM      9  C   UNL     1       1.151   1.924  -4.295  1.00  0.00     0.001 A 
ATOM     10  C   UNL     1       2.929  -0.102  -3.640  1.00  0.00     0.010 A 
ATOM     11  C   UNL     1       1.632   1.832  -3.006  1.00  0.00     0.010 A 
ENDBRANCH   1   6
BRANCH   5  12
ATOM     12  C   UNL     1       1.295   2.010  -0.126  1.00  0.00     0.046 A 
ATOM     13  C   UNL     1       1.347   3.364   0.189  1.00  0.00     0.027 A 
ATOM     14  C   UNL     1       0.074   1.404  -0.404  1.00  0.00     0.027 A 
ATOM     15  C   UNL     1       0.189   4.109   0.226  1.00  0.00     0.016 A 
ATOM     16  C   UNL     1      -1.087   2.144  -0.374  1.00  0.00     0.016 A 
ATOM     17  C   UNL     1      -1.039   3.504  -0.054  1.00  0.00     0.040 A 
BRANCH  17  18
ATOM     18  C   UNL     1      -2.282   4.299  -0.016  1.00  0.00     0.253 C 
ATOM     19  O   UNL     1      -2.247   5.492  -0.249  1.00  0.00    -0.269 OA
ATOM     20  N   UNL     1      -3.454   3.703   0.277  1.00  0.00    -0.339 N 
ATOM     21  C   UNL     1      -3.495   2.296   0.697  1.00  0.00     0.120 C 
ATOM     22  C   UNL     1      -4.716   4.451   0.189  1.00  0.00     0.120 C 
ATOM     23  C   UNL     1      -4.252   2.199   2.025  1.00  0.00     0.035 C 
ATOM     24  C   UNL     1      -5.461   4.328   1.518  1.00  0.00     0.035 C 
ATOM     25  C   UNL     1      -5.630   2.849   1.871  1.00  0.00     0.081 C 
BRANCH  25  26
ATOM     26  C   UNL     1      -6.391   2.725   3.165  1.00  0.00     0.220 C 
ATOM     27  O   UNL     1      -5.883   2.172   4.117  1.00  0.00    -0.275 OA
ATOM     28  N   UNL     1      -7.637   3.229   3.265  1.00  0.00    -0.369 N 
ATOM     29  H   UNL     1      -8.069   3.698   2.456  1.00  0.00     0.159 HD
ATOM     30  H   UNL     1      -8.158   3.144   4.149  1.00  0.00     0.159 HD
ENDBRANCH  25  26
ENDBRANCH  17  18
ENDBRANCH   5  12
BRANCH   4  31
ATOM     31  C   UNL     1       3.005   1.324   2.360  1.00  0.00     0.055 C 
BRANCH  31  32
ATOM     32  C   UNL     1       2.740   0.024   3.134  1.00  0.00     0.006 C 
BRANCH  32  33
ATOM     33  C   UNL     1       4.029  -0.687   3.461  1.00  0.00     0.001 CG0
ATOM     34  G   UNL     1       4.737  -1.367   2.315  1.00  0.00     0.000 G0
ENDBRANCH  32  33
ENDBRANCH  31  32
ENDBRANCH   4  31
BRANCH   3  35
ATOM     35  C   UNL     1       5.390  -0.338   1.380  1.00  0.00     0.037 C 
BRANCH  35  36
ATOM     36  C   UNL     1       4.737  -1.367   2.315  1.00  0.00     0.005 CG0
ATOM     37  G   UNL     1       4.029  -0.687   3.461  1.00  0.00     0.000 G0
ENDBRANCH  35  36
ENDBRANCH   3  35
TORSDOF 4
