REMARK SMILES Cc1cc(=O)[nH]c(S[C@@H](C)C(=O)c2cc(C(C)(C)C)c(O)c(C(C)(C)C)c2)n1
REMARK SMILES IDX 9 1 10 2 8 3 7 4 1 5 2 6 28 7 3 8 4 9 6 10 5 11 11 13 12 14
REMARK SMILES IDX 13 15 14 16 27 17 15 18 22 19 20 20 16 21 17 22 18 23 19 24
REMARK SMILES IDX 23 25 24 26 25 27 26 28 21 29
REMARK H PARENT 6 12 21 30
REMARK Flexibility Score: inf
ROOT
ATOM      1  C   UNL     1       3.731  -1.480   4.558  1.00  0.00     0.123 C 
ATOM      2  C   UNL     1       4.707  -0.406   5.043  1.00  0.00     0.029 C 
ENDROOT
BRANCH   1   3
ATOM      3  S   UNL     1       4.647  -2.985   4.146  1.00  0.00    -0.077 SA
BRANCH   3   4
ATOM      4  C   UNL     1       5.256  -3.419   5.742  1.00  0.00     0.169 A 
ATOM      5  C   UNL     1       5.040  -2.060   9.161  1.00  0.00     0.067 C 
ATOM      6  C   UNL     1       5.398  -2.951   8.000  1.00  0.00     0.046 A 
ATOM      7  N   UNL     1       4.964  -2.656   6.777  1.00  0.00    -0.229 NA
ATOM      8  C   UNL     1       6.173  -4.056   8.203  1.00  0.00     0.095 A 
ATOM      9  C   UNL     1       6.494  -4.873   7.105  1.00  0.00     0.251 A 
ATOM     10  N   UNL     1       6.024  -4.535   5.885  1.00  0.00    -0.301 N 
ATOM     11  O   UNL     1       7.184  -5.869   7.251  1.00  0.00    -0.269 OA
ATOM     12  H   UNL     1       6.246  -5.118   5.065  1.00  0.00     0.172 HD
ENDBRANCH   3   4
ENDBRANCH   1   3
BRANCH   1  13
ATOM     13  C   UNL     1       3.005  -0.983   3.335  1.00  0.00     0.176 C 
ATOM     14  O   UNL     1       3.415  -1.267   2.229  1.00  0.00    -0.293 OA
BRANCH  13  15
ATOM     15  C   UNL     1       1.801  -0.155   3.481  1.00  0.00     0.020 A 
ATOM     16  C   UNL     1       1.124   0.308   2.346  1.00  0.00     0.020 A 
ATOM     17  C   UNL     1       1.325   0.174   4.756  1.00  0.00     0.020 A 
ATOM     18  C   UNL     1       0.000   1.080   2.488  1.00  0.00     0.000 A 
ATOM     19  C   UNL     1       0.200   0.947   4.887  1.00  0.00     0.000 A 
ATOM     20  C   UNL     1      -0.465   1.408   3.757  1.00  0.00     0.123 A 
BRANCH  18  21
ATOM     21  C   UNL     1      -0.729   1.579   1.267  1.00  0.00    -0.010 C 
ATOM     22  C   UNL     1      -0.013   1.086   0.008  1.00  0.00     0.016 C 
ATOM     23  C   UNL     1      -0.750   3.109   1.275  1.00  0.00     0.016 C 
ATOM     24  C   UNL     1      -2.164   1.050   1.278  1.00  0.00     0.016 C 
ENDBRANCH  18  21
BRANCH  19  25
ATOM     25  C   UNL     1      -0.313   1.302   6.259  1.00  0.00    -0.010 C 
ATOM     26  C   UNL     1       0.596   0.680   7.321  1.00  0.00     0.016 C 
ATOM     27  C   UNL     1      -0.321   2.823   6.423  1.00  0.00     0.016 C 
ATOM     28  C   UNL     1      -1.735   0.764   6.427  1.00  0.00     0.016 C 
ENDBRANCH  19  25
BRANCH  20  29
ATOM     29  O   UNL     1      -1.575   2.177   3.892  1.00  0.00    -0.507 OA
ATOM     30  H   UNL     1      -1.288   2.946   4.445  1.00  0.00     0.293 HD
ENDBRANCH  20  29
ENDBRANCH  13  15
ENDBRANCH   1  13
TORSDOF 7
