REMARK SMILES Cc1cc(C[NH2+][C@H]2CC[C@@H](Nc3ncc(-c4ccsc4)c4nc(C(F)(F)F)ccc34)CC2)no1
REMARK SMILES IDX 7 1 8 2 9 3 10 4 31 5 32 6 6 7 5 10 4 11 1 12 2 13 34 14
REMARK SMILES IDX 3 15 33 16 11 17 12 19 13 20 30 21 14 22 21 23 29 24 15 25
REMARK SMILES IDX 22 26 28 27 23 28 16 29 20 30 17 31 19 32 18 33 24 34 25 35
REMARK SMILES IDX 26 36 27 37
REMARK H PARENT 6 8 6 9 11 18
REMARK Flexibility Score: inf
ROOT
ATOM      1  C   UNL     1      -0.835   5.734   8.171  1.00  0.00     0.182 C 
ATOM      2  C   UNL     1      -0.684   4.213   8.243  1.00  0.00     0.067 C 
ATOM      3  C   UNL     1      -2.070   3.563   8.251  1.00  0.00     0.031 C 
ATOM      4  C   UNL     1      -2.818   3.942   6.971  1.00  0.00     0.081 C 
ATOM      5  C   UNL     1      -2.968   5.462   6.899  1.00  0.00     0.031 C 
ATOM      6  C   UNL     1      -1.583   6.112   6.891  1.00  0.00     0.067 C 
ENDROOT
BRANCH   1   7
ATOM      7  N   UNL     1       0.495   6.358   8.163  1.00  0.00    -0.339 N 
ATOM      8  H   UNL     1       1.134   5.801   8.749  1.00  0.00     0.346 HD
ATOM      9  H   UNL     1       0.857   6.372   7.199  1.00  0.00     0.346 HD
BRANCH   7  10
ATOM     10  C   UNL     1       0.435   7.732   8.679  1.00  0.00     0.321 C 
BRANCH  10  11
ATOM     11  C   UNL     1       1.815   8.338   8.656  1.00  0.00     0.138 A 
ATOM     12  C   UNL     1       4.654  10.269   7.386  1.00  0.00     0.091 C 
ATOM     13  C   UNL     1       3.614   9.431   8.084  1.00  0.00     0.134 A 
ATOM     14  O   UNL     1       3.740   8.820   9.271  1.00  0.00    -0.361 OA
ATOM     15  C   UNL     1       2.369   9.142   7.634  1.00  0.00     0.078 A 
ATOM     16  N   UNL     1       2.733   8.220   9.571  1.00  0.00    -0.079 NA
ENDBRANCH  10  11
ENDBRANCH   7  10
ENDBRANCH   1   7
BRANCH   4  17
ATOM     17  N   UNL     1      -2.064   3.470   5.807  1.00  0.00    -0.367 N 
ATOM     18  H   UNL     1      -1.046   3.327   5.876  1.00  0.00     0.162 HD
BRANCH  17  19
ATOM     19  C   UNL     1      -2.719   3.215   4.614  1.00  0.00     0.135 A 
ATOM     20  N   UNL     1      -4.023   3.397   4.527  1.00  0.00    -0.238 NA
ATOM     21  C   UNL     1      -1.992   2.760   3.493  1.00  0.00     0.043 A 
ATOM     22  C   UNL     1      -4.704   3.171   3.414  1.00  0.00     0.124 A 
ATOM     23  C   UNL     1      -2.683   2.506   2.284  1.00  0.00     0.084 A 
ATOM     24  C   UNL     1      -0.605   2.552   3.540  1.00  0.00     0.016 A 
ATOM     25  C   UNL     1      -4.085   2.724   2.261  1.00  0.00     0.027 A 
ATOM     26  N   UNL     1      -2.020   2.082   1.210  1.00  0.00    -0.242 NA
ATOM     27  C   UNL     1       0.018   2.111   2.405  1.00  0.00     0.034 A 
ATOM     28  C   UNL     1      -0.722   1.881   1.250  1.00  0.00     0.145 A 
BRANCH  25  29
ATOM     29  C   UNL     1      -4.869   2.478   1.028  1.00  0.00    -0.004 A 
ATOM     30  C   UNL     1      -4.472   3.003  -0.170  1.00  0.00     0.073 A 
ATOM     31  C   UNL     1      -6.024   1.701   1.062  1.00  0.00     0.020 A 
ATOM     32  S   UNL     1      -5.742   2.407  -1.274  1.00  0.00    -0.152 S 
ATOM     33  C   UNL     1      -6.715   1.503  -0.083  1.00  0.00     0.065 A 
ENDBRANCH  25  29
BRANCH  28  34
ATOM     34  C   UNL     1      -0.017   1.395   0.010  1.00  0.00     0.433 C 
ATOM     35  F   UNL     1       0.002  -0.004   0.002  1.00  0.00    -0.165 F 
ATOM     36  F   UNL     1       1.296   1.879  -0.000  1.00  0.00    -0.165 F 
ATOM     37  F   UNL     1      -0.694   1.858  -1.124  1.00  0.00    -0.165 F 
ENDBRANCH  28  34
ENDBRANCH  17  19
ENDBRANCH   4  17
TORSDOF 7
