REMARK SMILES COc1cc(/C=N/n2c(-c3ccc(O)cc3O)cs/c2=N\c2ccc(F)cc2F)cc(OC)c1O
REMARK SMILES IDX 8 1 9 2 18 3 19 4 20 5 21 6 7 7 6 8 5 9 3 10 34 11 4 12
REMARK SMILES IDX 31 13 30 14 2 15 1 16 35 17 32 19 33 20 10 21 16 22 11 23
REMARK SMILES IDX 15 24 12 25 13 26 17 27 14 29 22 31 28 32 23 33 27 34 29 35
REMARK SMILES IDX 24 36 25 37 26 38
REMARK H PARENT 35 18 17 28 14 30
REMARK Flexibility Score: inf
ROOT
ATOM      1  N   UNL     1       0.790   3.218  -0.187  1.00  0.00    -0.205 N 
ATOM      2  C   UNL     1       1.007   1.868  -0.179  1.00  0.00     0.089 A 
ATOM      3  C   UNL     1      -0.024   1.027   0.049  1.00  0.00     0.097 A 
ATOM      4  S   UNL     1      -1.390   2.157   0.261  1.00  0.00    -0.103 S 
ATOM      5  C   UNL     1      -0.488   3.683   0.040  1.00  0.00     0.211 A 
ATOM      6  N   UNL     1      -0.929   4.925   0.079  1.00  0.00    -0.217 NA
ENDROOT
BRANCH   1   7
ATOM      7  N   UNL     1       1.844   4.111  -0.421  1.00  0.00    -0.173 NA
ATOM      8  C   UNL     1       1.773   5.331   0.019  1.00  0.00     0.142 C 
BRANCH   8   9
ATOM      9  C   UNL     1       2.830   6.300  -0.321  1.00  0.00     0.002 A 
ATOM     10  C   UNL     1       3.748   8.520  -0.169  1.00  0.00     0.165 A 
ATOM     11  C   UNL     1       4.821   8.127  -0.962  1.00  0.00     0.200 A 
ATOM     12  C   UNL     1       2.754   7.613   0.152  1.00  0.00     0.060 A 
ATOM     13  C   UNL     1       4.900   6.820  -1.434  1.00  0.00     0.165 A 
ATOM     14  C   UNL     1       3.913   5.907  -1.112  1.00  0.00     0.060 A 
BRANCH  10  15
ATOM     15  O   UNL     1       3.675   9.798   0.291  1.00  0.00    -0.493 OA
ATOM     16  C   UNL     1       2.545  10.133   1.099  1.00  0.00     0.278 C 
ENDBRANCH  10  15
BRANCH  11  17
ATOM     17  O   UNL     1       5.796   9.022  -1.276  1.00  0.00    -0.502 OA
ATOM     18  H   UNL     1       6.130   9.352  -0.404  1.00  0.00     0.293 HD
ENDBRANCH  11  17
BRANCH  13  19
ATOM     19  O   UNL     1       5.951   6.440  -2.208  1.00  0.00    -0.493 OA
ATOM     20  C   UNL     1       5.968   5.084  -2.659  1.00  0.00     0.278 C 
ENDBRANCH  13  19
ENDBRANCH   8   9
ENDBRANCH   1   7
BRANCH   2  21
ATOM     21  C   UNL     1       2.364   1.331  -0.419  1.00  0.00     0.043 A 
ATOM     22  C   UNL     1       2.531   0.131  -1.120  1.00  0.00     0.128 A 
ATOM     23  C   UNL     1       3.482   2.016   0.058  1.00  0.00     0.018 A 
ATOM     24  C   UNL     1       3.804  -0.362  -1.346  1.00  0.00     0.093 A 
ATOM     25  C   UNL     1       4.746   1.513  -0.167  1.00  0.00     0.047 A 
ATOM     26  C   UNL     1       4.910   0.326  -0.869  1.00  0.00     0.119 A 
BRANCH  22  27
ATOM     27  O   UNL     1       1.446  -0.544  -1.583  1.00  0.00    -0.507 OA
ATOM     28  H   UNL     1       0.964   0.108  -2.150  1.00  0.00     0.293 HD
ENDBRANCH  22  27
BRANCH  26  29
ATOM     29  O   UNL     1       6.159  -0.165  -1.087  1.00  0.00    -0.508 OA
ATOM     30  H   UNL     1       6.560  -0.253  -0.186  1.00  0.00     0.293 HD
ENDBRANCH  26  29
ENDBRANCH   2  21
BRANCH   6  31
ATOM     31  C   UNL     1      -2.268   5.171   0.215  1.00  0.00     0.102 A 
ATOM     32  C   UNL     1      -3.095   5.203  -0.913  1.00  0.00     0.151 A 
ATOM     33  C   UNL     1      -2.817   5.387   1.481  1.00  0.00     0.034 A 
ATOM     34  C   UNL     1      -4.445   5.452  -0.768  1.00  0.00     0.080 A 
ATOM     35  F   UNL     1      -2.573   4.990  -2.141  1.00  0.00    -0.205 F 
ATOM     36  C   UNL     1      -4.167   5.641   1.612  1.00  0.00     0.041 A 
ATOM     37  C   UNL     1      -4.981   5.671   0.491  1.00  0.00     0.126 A 
ATOM     38  F   UNL     1      -6.303   5.914   0.627  1.00  0.00    -0.207 F 
ENDBRANCH   6  31
TORSDOF 9
