REMARK SMILES COc1ccc(OC)c(NC(=O)C2=C(C)NC(=S)N[C@H]2c2ccc(-c3ccccc3)s2)c1
REMARK SMILES IDX 15 1 14 2 13 3 20 4 19 5 17 6 18 7 16 8 11 11 12 12 10 13
REMARK SMILES IDX 9 15 6 16 32 17 5 18 3 19 4 20 7 21 8 22 2 23 1 24 21 25
REMARK SMILES IDX 31 26 22 27 24 28 23 29 25 30 30 31 26 32 29 33 27 34 28 35
REMARK H PARENT 19 9 16 10 10 14
REMARK Flexibility Score: inf
ROOT
ATOM      1  C   UNL     1       2.741  10.584   3.175  1.00  0.00     0.065 C 
ATOM      2  C   UNL     1       2.386  10.191   1.764  1.00  0.00     0.025 C 
ATOM      3  C   UNL     1       1.127   9.796   1.481  1.00  0.00     0.064 C 
ATOM      4  C   UNL     1       0.813   9.409   0.050  1.00  0.00     0.160 C 
ATOM      5  N   UNL     1       1.915   9.498  -0.922  1.00  0.00    -0.350 N 
ATOM      6  C   UNL     1       3.122   9.911  -0.487  1.00  0.00     0.171 C 
ATOM      7  S   UNL     1       4.413  10.019  -1.606  1.00  0.00    -0.041 S 
ATOM      8  N   UNL     1       3.344  10.241   0.791  1.00  0.00    -0.336 N 
ATOM      9  H   UNL     1       1.768   9.249  -1.911  1.00  0.00     0.163 HD
ATOM     10  H   UNL     1       4.290  10.550   1.057  1.00  0.00     0.169 HD
ENDROOT
BRANCH   3  11
ATOM     11  C   UNL     1       0.133   9.743   2.489  1.00  0.00     0.255 C 
ATOM     12  O   UNL     1      -0.781  10.548   2.485  1.00  0.00    -0.269 OA
ATOM     13  N   UNL     1       0.198   8.803   3.452  1.00  0.00    -0.319 N 
ATOM     14  H   UNL     1       1.015   8.178   3.507  1.00  0.00     0.170 HD
BRANCH  13  15
ATOM     15  C   UNL     1      -0.845   8.675   4.378  1.00  0.00     0.087 A 
ATOM     16  C   UNL     1      -0.602   8.111   5.628  1.00  0.00     0.142 A 
ATOM     17  C   UNL     1      -2.122   9.104   4.049  1.00  0.00     0.076 A 
ATOM     18  C   UNL     1      -1.635   7.989   6.544  1.00  0.00     0.052 A 
ATOM     19  C   UNL     1      -3.153   8.976   4.968  1.00  0.00     0.121 A 
ATOM     20  C   UNL     1      -2.907   8.418   6.214  1.00  0.00     0.050 A 
BRANCH  16  21
ATOM     21  O   UNL     1       0.648   7.684   5.952  1.00  0.00    -0.495 OA
ATOM     22  C   UNL     1       0.824   7.116   7.251  1.00  0.00     0.278 C 
ENDBRANCH  16  21
BRANCH  19  23
ATOM     23  O   UNL     1      -4.405   9.396   4.647  1.00  0.00    -0.497 OA
ATOM     24  C   UNL     1      -5.419   9.234   5.641  1.00  0.00     0.278 C 
ENDBRANCH  19  23
ENDBRANCH  13  15
ENDBRANCH   3  11
BRANCH   4  25
ATOM     25  C   UNL     1       0.308   7.989   0.052  1.00  0.00     0.032 A 
ATOM     26  S   UNL     1       1.239   6.467   0.020  1.00  0.00    -0.138 S 
ATOM     27  C   UNL     1      -0.973   7.539   0.080  1.00  0.00     0.018 A 
ATOM     28  C   UNL     1      -0.136   5.329   0.045  1.00  0.00     0.035 A 
ATOM     29  C   UNL     1      -1.207   6.181   0.071  1.00  0.00     0.021 A 
BRANCH  28  30
ATOM     30  C   UNL     1      -0.122   3.851   0.035  1.00  0.00    -0.008 A 
ATOM     31  C   UNL     1      -1.322   3.138   0.060  1.00  0.00     0.009 A 
ATOM     32  C   UNL     1       1.091   3.161   0.002  1.00  0.00     0.009 A 
ATOM     33  C   UNL     1      -1.302   1.759   0.045  1.00  0.00     0.001 A 
ATOM     34  C   UNL     1       1.097   1.782  -0.007  1.00  0.00     0.001 A 
ATOM     35  C   UNL     1      -0.096   1.082   0.017  1.00  0.00     0.000 A 
ENDBRANCH  28  30
ENDBRANCH   4  25
TORSDOF 6
