REMARK SMILES O=C(CCCC(=O)OCCCc1ccccc1)NC(=S)NNC(=O)C(c1ccccc1)c1ccccc1
REMARK SMILES IDX 4 1 5 2 6 3 7 4 8 5 9 6 10 7 11 8 12 9 15 10 16 11 14 12
REMARK SMILES IDX 17 13 13 14 3 15 2 16 1 17 18 18 19 20 20 21 21 22 22 24
REMARK SMILES IDX 23 25 24 27 25 28 26 29 31 30 27 31 30 32 28 33 29 34 32 35
REMARK SMILES IDX 37 36 33 37 36 38 34 39 35 40
REMARK H PARENT 18 19 21 23 22 26
REMARK Flexibility Score: inf
ROOT
ATOM      1  C   UNL     1       3.168   2.169   7.512  1.00  0.00     0.022 C 
ENDROOT
BRANCH   1   2
ATOM      2  C   UNL     1       4.525   2.876   7.537  1.00  0.00     0.123 C 
BRANCH   2   3
ATOM      3  C   UNL     1       4.909   3.176   8.963  1.00  0.00     0.305 C 
ATOM      4  O   UNL     1       4.173   2.857   9.867  1.00  0.00    -0.252 OA
BRANCH   3   5
ATOM      5  O   UNL     1       6.069   3.797   9.229  1.00  0.00    -0.466 OA
BRANCH   5   6
ATOM      6  C   UNL     1       6.374   4.054  10.625  1.00  0.00     0.233 C 
BRANCH   6   7
ATOM      7  C   UNL     1       7.726   4.764  10.730  1.00  0.00     0.046 C 
BRANCH   7   8
ATOM      8  C   UNL     1       8.047   5.034  12.201  1.00  0.00     0.039 C 
BRANCH   8   9
ATOM      9  C   UNL     1       9.378   5.733  12.304  1.00  0.00    -0.048 A 
ATOM     10  C   UNL     1      11.820   7.015  12.493  1.00  0.00     0.000 A 
ATOM     11  C   UNL     1      11.761   5.634  12.521  1.00  0.00     0.000 A 
ATOM     12  C   UNL     1      10.659   7.755  12.371  1.00  0.00     0.000 A 
ATOM     13  C   UNL     1      10.539   4.993  12.431  1.00  0.00     0.004 A 
ATOM     14  C   UNL     1       9.438   7.114  12.276  1.00  0.00     0.004 A 
ENDBRANCH   8   9
ENDBRANCH   7   8
ENDBRANCH   6   7
ENDBRANCH   5   6
ENDBRANCH   3   5
ENDBRANCH   2   3
ENDBRANCH   1   2
BRANCH   1  15
ATOM     15  C   UNL     1       2.778   1.865   6.065  1.00  0.00     0.101 C 
BRANCH  15  16
ATOM     16  C   UNL     1       1.442   1.169   6.040  1.00  0.00     0.226 C 
ATOM     17  O   UNL     1       0.859   0.939   7.078  1.00  0.00    -0.275 OA
ATOM     18  N   UNL     1       0.894   0.801   4.865  1.00  0.00    -0.302 N 
ATOM     19  H   UNL     1       1.389   0.997   3.983  1.00  0.00     0.172 HD
BRANCH  18  20
ATOM     20  C   UNL     1      -0.301   0.179   4.843  1.00  0.00     0.191 C 
ATOM     21  S   UNL     1      -1.124  -0.145   6.309  1.00  0.00    -0.039 S 
BRANCH  20  22
ATOM     22  N   UNL     1      -0.848  -0.188   3.667  1.00  0.00    -0.274 N 
ATOM     23  H   UNL     1      -1.762  -0.664   3.651  1.00  0.00     0.190 HD
BRANCH  22  24
ATOM     24  N   UNL     1      -0.175   0.077   2.468  1.00  0.00    -0.267 N 
ATOM     25  C   UNL     1      -0.722  -0.290   1.292  1.00  0.00     0.250 C 
ATOM     26  H   UNL     1       0.739   0.553   2.485  1.00  0.00     0.191 HD
ATOM     27  O   UNL     1      -1.798  -0.850   1.273  1.00  0.00    -0.272 OA
BRANCH  25  28
ATOM     28  C   UNL     1       0.002  -0.004   0.002  1.00  0.00     0.140 C 
BRANCH  28  29
ATOM     29  C   UNL     1       0.208   1.482  -0.140  1.00  0.00    -0.031 A 
ATOM     30  C   UNL     1       1.467   1.983  -0.414  1.00  0.00     0.005 A 
ATOM     31  C   UNL     1      -0.864   2.344  -0.003  1.00  0.00     0.005 A 
ATOM     32  C   UNL     1       1.655   3.346  -0.545  1.00  0.00     0.000 A 
ATOM     33  C   UNL     1      -0.675   3.708  -0.129  1.00  0.00     0.000 A 
ATOM     34  C   UNL     1       0.585   4.208  -0.402  1.00  0.00     0.000 A 
ENDBRANCH  28  29
BRANCH  28  35
ATOM     35  C   UNL     1      -0.817  -0.511  -1.157  1.00  0.00    -0.031 A 
ATOM     36  C   UNL     1      -0.253  -1.376  -2.076  1.00  0.00     0.005 A 
ATOM     37  C   UNL     1      -2.134  -0.116  -1.298  1.00  0.00     0.005 A 
ATOM     38  C   UNL     1      -1.005  -1.842  -3.138  1.00  0.00     0.000 A 
ATOM     39  C   UNL     1      -2.884  -0.577  -2.364  1.00  0.00     0.000 A 
ATOM     40  C   UNL     1      -2.320  -1.442  -3.283  1.00  0.00     0.000 A 
ENDBRANCH  28  35
ENDBRANCH  25  28
ENDBRANCH  22  24
ENDBRANCH  20  22
ENDBRANCH  18  20
ENDBRANCH  15  16
ENDBRANCH   1  15
TORSDOF 15
