REMARK SMILES COc1ccc2c(c1)S[C@H](c1ccc3c(c1)OCO3)CCN2Cc1cccn1-c1cccnc1
REMARK SMILES IDX 3 1 4 2 5 3 6 4 7 5 8 6 2 7 1 8 9 9 10 10 20 11 11 13 16 14
REMARK SMILES IDX 12 15 15 16 13 17 14 18 17 19 19 20 18 21 22 22 21 23 23 25
REMARK SMILES IDX 24 26 28 27 25 28 27 29 26 30 29 31 34 32 30 33 33 34 31 35
REMARK SMILES IDX 32 36
REMARK H PARENT
REMARK Flexibility Score: 80.00
ROOT
ATOM      1  C   UNL     1       0.812   0.042   2.882  1.00  0.00     0.120 A 
ATOM      2  C   UNL     1       0.344   1.056   2.060  1.00  0.00     0.048 A 
ATOM      3  C   UNL     1      -0.921   1.584   2.242  1.00  0.00     0.031 A 
ATOM      4  C   UNL     1      -1.734   1.093   3.259  1.00  0.00     0.051 A 
ATOM      5  C   UNL     1      -1.262   0.077   4.069  1.00  0.00     0.035 A 
ATOM      6  C   UNL     1       0.003  -0.455   3.897  1.00  0.00     0.063 A 
ENDROOT
BRANCH   1   7
ATOM      7  O   UNL     1       2.060  -0.465   2.696  1.00  0.00    -0.497 OA
ATOM      8  C   UNL     1       2.790   0.008   1.561  1.00  0.00     0.278 C 
ENDBRANCH   1   7
BRANCH   5   9
ATOM      9  S   UNL     1      -2.328  -0.539   5.349  1.00  0.00    -0.116 SA
BRANCH   9  10
ATOM     10  C   UNL     1      -2.473   0.911   6.444  1.00  0.00     0.083 C 
BRANCH  10  11
ATOM     11  C   UNL     1      -3.461   1.897   5.849  1.00  0.00     0.041 CG0
ATOM     12  G   UNL     1      -3.023   2.580   4.571  1.00  0.00     0.000 G0
ENDBRANCH  10  11
BRANCH  10  13
ATOM     13  C   UNL     1      -2.959   0.470   7.801  1.00  0.00    -0.031 A 
ATOM     14  C   UNL     1      -2.183   0.701   8.920  1.00  0.00     0.055 A 
ATOM     15  C   UNL     1      -4.184  -0.160   7.923  1.00  0.00     0.009 A 
ATOM     16  C   UNL     1      -2.627   0.296  10.168  1.00  0.00     0.166 A 
ATOM     17  C   UNL     1      -4.632  -0.571   9.165  1.00  0.00     0.051 A 
ATOM     18  C   UNL     1      -3.859  -0.343  10.291  1.00  0.00     0.165 A 
ATOM     19  O   UNL     1      -2.065   0.402  11.408  1.00  0.00    -0.454 OA
ATOM     20  O   UNL     1      -4.068  -0.638  11.607  1.00  0.00    -0.454 OA
ATOM     21  C   UNL     1      -2.775  -0.541  12.233  1.00  0.00     0.468 C 
ENDBRANCH  10  13
ENDBRANCH   9  10
ENDBRANCH   5   9
BRANCH   4  22
ATOM     22  N   UNL     1      -3.017   1.651   3.433  1.00  0.00    -0.365 N 
BRANCH  22  23
ATOM     23  C   UNL     1      -3.023   2.580   4.571  1.00  0.00     0.118 CG0
ATOM     24  G   UNL     1      -3.461   1.897   5.849  1.00  0.00     0.000 G0
ENDBRANCH  22  23
BRANCH  22  25
ATOM     25  C   UNL     1      -3.471   2.319   2.206  1.00  0.00     0.171 C 
BRANCH  25  26
ATOM     26  C   UNL     1      -4.926   2.685   2.343  1.00  0.00     0.042 A 
ATOM     27  N   UNL     1      -5.986   1.863   2.087  1.00  0.00    -0.318 N 
ATOM     28  C   UNL     1      -5.407   3.881   2.739  1.00  0.00     0.025 A 
ATOM     29  C   UNL     1      -7.141   2.553   2.321  1.00  0.00     0.092 A 
ATOM     30  C   UNL     1      -6.814   3.796   2.728  1.00  0.00     0.020 A 
BRANCH  27  31
ATOM     31  C   UNL     1      -5.903   0.533   1.651  1.00  0.00     0.064 A 
ATOM     32  C   UNL     1      -5.207   0.213   0.494  1.00  0.00     0.137 A 
ATOM     33  C   UNL     1      -6.512  -0.488   2.377  1.00  0.00     0.030 A 
ATOM     34  N   UNL     1      -5.130  -1.035   0.078  1.00  0.00    -0.263 NA
ATOM     35  C   UNL     1      -6.407  -1.785   1.903  1.00  0.00     0.022 A 
ATOM     36  C   UNL     1      -5.700  -2.024   0.739  1.00  0.00     0.111 A 
ENDBRANCH  27  31
ENDBRANCH  25  26
ENDBRANCH  22  25
ENDBRANCH   4  22
TORSDOF 5
