REMARK SMILES CC[C@@H](C)[C@H](C(=O)N[C@H]1C(=O)N[C@H](CC(C)C)C(=O)N/C=C\c2ccc(cc2)O[C@@H]1c1ccccc1)[NH+](C)C
REMARK SMILES IDX 9 1 8 2 6 3 7 4 5 6 3 7 4 8 2 9 1 10 37 11 38 12 39 13 10 15
REMARK SMILES IDX 12 16 11 17 13 19 14 21 15 22 16 23 17 24 30 25 29 26 26 27
REMARK SMILES IDX 27 28 25 29 28 30 24 31 23 32 22 33 21 34 20 35 18 36 19 38
REMARK SMILES IDX 31 40 36 41 32 42 35 43 33 44 34 45
REMARK H PARENT 8 5 37 14 12 18 20 37
REMARK Flexibility Score: 80.00
ROOT
ATOM      1  C   UNL     1       0.085   3.108  -4.984  1.00  0.00     0.217 C 
ENDROOT
BRANCH   1   2
ATOM      2  N   UNL     1       1.182   2.437  -5.687  1.00  0.00    -0.336 N 
ATOM      3  C   UNL     1       1.159   1.099  -5.853  1.00  0.00     0.279 C 
ATOM      4  O   UNL     1       0.229   0.451  -5.420  1.00  0.00    -0.268 OA
ATOM      5  H   UNL     1       1.971   2.987  -6.055  1.00  0.00     0.164 HD
BRANCH   3   6
ATOM      6  C   UNL     1       2.287   0.409  -6.575  1.00  0.00     0.276 C 
BRANCH   6   7
ATOM      7  C   UNL     1       3.372   0.018  -5.570  1.00  0.00     0.054 C 
ATOM      8  C   UNL     1       3.869   1.268  -4.843  1.00  0.00     0.014 C 
BRANCH   7   9
ATOM      9  C   UNL     1       4.539  -0.640  -6.310  1.00  0.00     0.006 C 
ATOM     10  C   UNL     1       5.646  -0.985  -5.312  1.00  0.00     0.004 C 
ENDBRANCH   7   9
ENDBRANCH   6   7
BRANCH   6  11
ATOM     11  N   UNL     1       1.750  -0.792  -7.249  1.00  0.00    -0.329 N 
ATOM     12  C   UNL     1       2.558  -1.102  -8.447  1.00  0.00     0.333 C 
ATOM     13  C   UNL     1       1.764  -1.941  -6.319  1.00  0.00     0.333 C 
ATOM     14  H   UNL     1       0.779  -0.607  -7.538  1.00  0.00     0.348 HD
ENDBRANCH   6  11
ENDBRANCH   3   6
ENDBRANCH   1   2
BRANCH   1  15
ATOM     15  C   UNL     1       0.333   3.068  -3.501  1.00  0.00     0.247 C 
ATOM     16  N   UNL     1       0.708   1.884  -2.950  1.00  0.00    -0.342 N 
ATOM     17  O   UNL     1       0.200   4.048  -2.807  1.00  0.00    -0.273 OA
ATOM     18  H   UNL     1       0.698   1.042  -3.543  1.00  0.00     0.164 HD
BRANCH  16  19
ATOM     19  C   UNL     1       1.126   1.748  -1.550  1.00  0.00     0.172 CG0
ATOM     20  G   UNL     1       2.502   2.326  -1.371  1.00  0.00     0.000 G0
BRANCH  19  21
ATOM     21  C   UNL     1       0.105   2.334  -0.586  1.00  0.00     0.038 C 
BRANCH  21  22
ATOM     22  C   UNL     1      -1.193   1.528  -0.666  1.00  0.00    -0.015 C 
ATOM     23  C   UNL     1      -1.810   1.692  -2.057  1.00  0.00     0.007 C 
ATOM     24  C   UNL     1      -2.175   2.038   0.391  1.00  0.00     0.007 C 
ENDBRANCH  21  22
ENDBRANCH  19  21
ENDBRANCH  16  19
ENDBRANCH   1  15
BRANCH   1  25
ATOM     25  C   UNL     1      -0.139   4.490  -5.567  1.00  0.00     0.235 C 
BRANCH  25  26
ATOM     26  O   UNL     1       1.004   5.336  -5.559  1.00  0.00    -0.483 OA
BRANCH  26  27
ATOM     27  C   UNL     1       1.964   5.158  -4.628  1.00  0.00     0.120 A 
ATOM     28  C   UNL     1       1.768   5.686  -3.353  1.00  0.00     0.047 A 
ATOM     29  C   UNL     1       3.157   4.510  -4.921  1.00  0.00     0.047 A 
ATOM     30  C   UNL     1       2.657   5.384  -2.353  1.00  0.00     0.012 A 
ATOM     31  C   UNL     1       4.085   4.255  -3.928  1.00  0.00     0.012 A 
ATOM     32  C   UNL     1       3.801   4.635  -2.610  1.00  0.00    -0.024 A 
BRANCH  32  33
ATOM     33  C   UNL     1       4.681   4.218  -1.506  1.00  0.00     0.026 C 
ATOM     34  C   UNL     1       4.101   3.718  -0.417  1.00  0.00     0.086 C 
BRANCH  34  35
ATOM     35  N   UNL     1       2.733   3.383  -0.528  1.00  0.00    -0.331 N 
ATOM     36  C   UNL     1       2.502   2.326  -1.371  1.00  0.00     0.246 CG0
ATOM     37  H   UNL     1       1.985   3.882  -0.026  1.00  0.00     0.169 HD
ATOM     38  O   UNL     1       3.443   1.842  -1.985  1.00  0.00    -0.272 OA
ATOM     39  G   UNL     1       1.126   1.748  -1.550  1.00  0.00     0.000 G0
ENDBRANCH  34  35
ENDBRANCH  32  33
ENDBRANCH  26  27
ENDBRANCH  25  26
BRANCH  25  40
ATOM     40  C   UNL     1      -1.321   5.171  -4.924  1.00  0.00    -0.005 A 
ATOM     41  C   UNL     1      -1.177   6.428  -4.369  1.00  0.00     0.007 A 
ATOM     42  C   UNL     1      -2.550   4.539  -4.895  1.00  0.00     0.007 A 
ATOM     43  C   UNL     1      -2.262   7.052  -3.780  1.00  0.00     0.000 A 
ATOM     44  C   UNL     1      -3.633   5.160  -4.301  1.00  0.00     0.000 A 
ATOM     45  C   UNL     1      -3.489   6.418  -3.746  1.00  0.00     0.000 A 
ENDBRANCH  25  40
ENDBRANCH   1  25
TORSDOF 8
