REMARK SMILES C[NH2+][C@H]1C[C@H]2O[C@@](C)([C@@H]1OC)n1c3c(c4c5c(c6c7c(n2c6c41)CCCC7)C(=O)NC5)CCCC3
REMARK SMILES IDX 8 1 7 2 9 3 3 4 4 5 5 6 6 7 21 8 20 9 19 10 18 11 22 12
REMARK SMILES IDX 23 13 12 14 13 15 14 16 15 17 16 18 17 19 28 20 29 21 30 22
REMARK SMILES IDX 31 23 32 24 33 25 34 26 35 27 27 28 26 29 25 30 24 31 10 33
REMARK SMILES IDX 11 34 2 35 1 36
REMARK H PARENT 30 32 2 37 2 38
REMARK Flexibility Score: inf
ROOT
ATOM      1  C   UNL     1      -5.315   1.702   2.364  1.00  0.00     0.071 C 
ATOM      2  C   UNL     1      -4.065   1.179   1.654  1.00  0.00     0.177 C 
ATOM      3  C   UNL     1      -2.895   2.045   2.107  1.00  0.00     0.228 C 
ATOM      4  C   UNL     1      -1.580   1.393   1.664  1.00  0.00     0.221 C 
ATOM      5  C   UNL     1      -1.491   0.006   2.310  1.00  0.00     0.123 C 
ATOM      6  C   UNL     1      -2.675  -0.840   1.856  1.00  0.00     0.228 C 
ATOM      7  O   UNL     1      -3.908  -0.172   2.028  1.00  0.00    -0.329 OA
ATOM      8  N   UNL     1      -2.484  -1.295   0.480  1.00  0.00    -0.316 N 
ATOM      9  C   UNL     1      -1.791  -2.388   0.048  1.00  0.00     0.025 A 
ATOM     10  C   UNL     1      -1.850  -2.457  -1.301  1.00  0.00    -0.018 A 
ATOM     11  C   UNL     1      -2.614  -1.366  -1.766  1.00  0.00     0.018 A 
ATOM     12  C   UNL     1      -3.006  -0.656  -0.627  1.00  0.00     0.076 A 
ATOM     13  C   UNL     1      -3.796   0.489  -0.744  1.00  0.00     0.076 A 
ATOM     14  N   UNL     1      -4.297   1.339   0.219  1.00  0.00    -0.311 N 
ATOM     15  C   UNL     1      -5.028   2.320  -0.394  1.00  0.00     0.025 A 
ATOM     16  C   UNL     1      -5.013   2.138  -1.730  1.00  0.00    -0.019 A 
ATOM     17  C   UNL     1      -4.209   0.949  -2.003  1.00  0.00     0.011 A 
ATOM     18  C   UNL     1      -3.822   0.266  -3.157  1.00  0.00    -0.006 A 
ATOM     19  C   UNL     1      -3.035  -0.877  -3.078  1.00  0.00     0.055 A 
ATOM     20  C   UNL     1      -2.788  -1.369  -4.440  1.00  0.00     0.252 C 
ATOM     21  O   UNL     1      -2.132  -2.356  -4.714  1.00  0.00    -0.269 OA
ATOM     22  N   UNL     1      -3.390  -0.574  -5.342  1.00  0.00    -0.348 N 
ATOM     23  C   UNL     1      -4.082   0.503  -4.625  1.00  0.00     0.153 C 
ATOM     24  C   UNL     1      -5.717   3.024  -2.724  1.00  0.00     0.038 C 
ATOM     25  C   UNL     1      -6.751   3.872  -1.972  1.00  0.00     0.005 C 
ATOM     26  C   UNL     1      -6.082   4.526  -0.760  1.00  0.00     0.007 C 
ATOM     27  C   UNL     1      -5.760   3.454   0.287  1.00  0.00     0.054 C 
ATOM     28  C   UNL     1      -1.196  -3.537  -2.127  1.00  0.00     0.038 C 
ATOM     29  C   UNL     1      -0.160  -4.258  -1.257  1.00  0.00     0.005 C 
ATOM     30  C   UNL     1      -0.803  -4.652   0.076  1.00  0.00     0.007 C 
ATOM     31  C   UNL     1      -1.061  -3.393   0.909  1.00  0.00     0.054 C 
ATOM     32  H   UNL     1      -3.370  -0.701  -6.364  1.00  0.00     0.164 HD
ENDROOT
BRANCH   3  33
ATOM     33  O   UNL     1      -3.006   3.342   1.518  1.00  0.00    -0.370 OA
ATOM     34  C   UNL     1      -3.022   4.411   2.465  1.00  0.00     0.195 C 
ENDBRANCH   3  33
BRANCH   4  35
ATOM     35  N   UNL     1      -0.446   2.224   2.112  1.00  0.00    -0.344 N 
ATOM     36  C   UNL     1       0.729   1.995   1.250  1.00  0.00     0.331 C 
ATOM     37  H   UNL     1      -0.207   1.983   3.084  1.00  0.00     0.346 HD
ATOM     38  H   UNL     1      -0.713   3.218   2.067  1.00  0.00     0.346 HD
ENDBRANCH   4  35
TORSDOF 2
