REMARK SMILES C[C@]12CC[C@@H]3[C@@H](CCC4=CC(=O)CC[C@]43C)[C@@H]1CC[C@@H]2OC(=O)CCC(=O)NCCc1ccc(O)c(O)c1
REMARK SMILES IDX 26 1 27 2 28 3 25 5 24 6 22 7 23 8 21 9 20 10 1 11 2 12
REMARK SMILES IDX 17 13 3 14 6 15 18 16 19 17 4 18 5 19 7 20 15 21 8 22 9 23
REMARK SMILES IDX 14 24 16 25 10 26 13 27 11 28 12 29 29 30 30 31 31 32 38 33
REMARK SMILES IDX 32 34 36 35 33 36 34 37 37 38 35 40
REMARK H PARENT 28 4 37 39 35 41
REMARK Flexibility Score: inf
ROOT
ATOM      1  C   UNL     1       9.145  -0.113   3.158  1.00  0.00     0.220 C 
ATOM      2  O   UNL     1       8.887  -1.290   3.299  1.00  0.00    -0.275 OA
ATOM      3  N   UNL     1      10.364   0.354   3.495  1.00  0.00    -0.356 N 
ATOM      4  H   UNL     1      10.583   1.354   3.375  1.00  0.00     0.163 HD
ENDROOT
BRANCH   1   5
ATOM      5  C   UNL     1       8.104   0.826   2.606  1.00  0.00     0.111 C 
BRANCH   5   6
ATOM      6  C   UNL     1       6.821   0.047   2.308  1.00  0.00     0.132 C 
BRANCH   6   7
ATOM      7  C   UNL     1       5.780   0.987   1.756  1.00  0.00     0.306 C 
ATOM      8  O   UNL     1       6.037   2.159   1.615  1.00  0.00    -0.252 OA
BRANCH   7   9
ATOM      9  O   UNL     1       4.567   0.521   1.421  1.00  0.00    -0.462 OA
BRANCH   9  10
ATOM     10  C   UNL     1       3.615   1.481   0.896  1.00  0.00     0.182 C 
ATOM     11  C   UNL     1       2.167  -0.514   1.188  1.00  0.00     0.015 C 
ATOM     12  C   UNL     1       2.183   1.014   1.193  1.00  0.00     0.008 C 
ATOM     13  C   UNL     1       1.402   1.606  -0.003  1.00  0.00     0.002 C 
ATOM     14  C   UNL     1       1.578   1.533   2.475  1.00  0.00     0.011 C 
ATOM     15  C   UNL     1      -0.013   1.106   0.008  1.00  0.00    -0.003 C 
ATOM     16  C   UNL     1       2.292   1.192  -1.183  1.00  0.00     0.008 C 
ATOM     17  C   UNL     1       3.708   1.548  -0.650  1.00  0.00     0.046 C 
ATOM     18  C   UNL     1       0.083   1.243   2.540  1.00  0.00     0.005 C 
ATOM     19  C   UNL     1      -0.720   1.544   1.281  1.00  0.00     0.002 C 
ATOM     20  C   UNL     1      -0.773   1.499  -1.254  1.00  0.00     0.008 C 
ATOM     21  C   UNL     1      -1.264   2.965   1.291  1.00  0.00    -0.008 C 
ATOM     22  C   UNL     1      -0.975   3.014  -1.289  1.00  0.00     0.032 C 
ATOM     23  C   UNL     1      -1.772   3.390  -0.054  1.00  0.00    -0.060 C 
ATOM     24  C   UNL     1      -2.367   3.037   2.349  1.00  0.00     0.019 C 
ATOM     25  C   UNL     1      -0.187   3.964   1.706  1.00  0.00     0.016 C 
ATOM     26  C   UNL     1      -2.892   4.088  -0.227  1.00  0.00     0.047 C 
ATOM     27  C   UNL     1      -3.121   4.359   2.301  1.00  0.00     0.081 C 
ATOM     28  C   UNL     1      -3.684   4.556   0.911  1.00  0.00     0.155 C 
ATOM     29  O   UNL     1      -4.767   5.090   0.743  1.00  0.00    -0.295 OA
ENDBRANCH   9  10
ENDBRANCH   7   9
ENDBRANCH   6   7
ENDBRANCH   5   6
ENDBRANCH   1   5
BRANCH   3  30
ATOM     30  C   UNL     1      11.376  -0.559   4.031  1.00  0.00     0.120 C 
BRANCH  30  31
ATOM     31  C   UNL     1      12.659   0.220   4.329  1.00  0.00     0.057 C 
BRANCH  31  32
ATOM     32  C   UNL     1      13.700  -0.719   4.881  1.00  0.00    -0.042 A 
ATOM     33  C   UNL     1      13.789  -0.925   6.245  1.00  0.00     0.054 A 
ATOM     34  C   UNL     1      14.568  -1.368   4.023  1.00  0.00     0.008 A 
ATOM     35  C   UNL     1      14.743  -1.792   6.754  1.00  0.00     0.157 A 
ATOM     36  C   UNL     1      15.525  -2.231   4.524  1.00  0.00     0.050 A 
ATOM     37  C   UNL     1      15.616  -2.446   5.890  1.00  0.00     0.157 A 
BRANCH  35  38
ATOM     38  O   UNL     1      14.828  -2.000   8.095  1.00  0.00    -0.504 OA
ATOM     39  H   UNL     1      15.762  -1.769   8.329  1.00  0.00     0.293 HD
ENDBRANCH  35  38
BRANCH  37  40
ATOM     40  O   UNL     1      16.557  -3.294   6.385  1.00  0.00    -0.504 OA
ATOM     41  H   UNL     1      17.419  -2.943   6.046  1.00  0.00     0.293 HD
ENDBRANCH  37  40
ENDBRANCH  31  32
ENDBRANCH  30  31
ENDBRANCH   3  30
TORSDOF 10
