REMARK SMILES CC1(C)[C@@H](OCO)CC[C@]2(C)[C@H]3C(=O)C=C4C5=C[C@@](C)(C(=O)[O-])CC[C@]5(C)CC[C@@]4(C)[C@]3(C)CC[C@@H]12
REMARK SMILES IDX 5 1 4 2 1 3 2 4 36 5 3 6 8 7 10 8 35 9 9 10 12 11 11 12
REMARK SMILES IDX 34 13 32 14 13 15 30 16 33 17 14 18 15 19 16 20 29 21 31 22
REMARK SMILES IDX 17 23 28 24 26 25 18 26 25 27 27 28 19 29 24 30 20 31 21 32
REMARK SMILES IDX 22 33 23 34 6 35 7 36
REMARK H PARENT 7 37
REMARK Flexibility Score: inf
ROOT
ATOM      1  O   UNL     1      -6.237   1.131   1.847  1.00  0.00    -0.352 OA
ENDROOT
BRANCH   1   2
ATOM      2  C   UNL     1      -5.145   0.728   1.011  1.00  0.00     0.127 C 
ATOM      3  C   UNL     1      -3.576   0.258   2.848  1.00  0.00     0.014 C 
ATOM      4  C   UNL     1      -3.835   1.198   1.643  1.00  0.00    -0.006 C 
ATOM      5  C   UNL     1      -2.664   1.078   0.694  1.00  0.00     0.004 C 
ATOM      6  C   UNL     1      -4.003   2.608   2.207  1.00  0.00     0.014 C 
ATOM      7  C   UNL     1      -5.347   1.291  -0.389  1.00  0.00     0.033 C 
ATOM      8  C   UNL     1      -2.887   1.622  -0.713  1.00  0.00    -0.018 C 
ATOM      9  C   UNL     1      -1.365   1.627   1.279  1.00  0.00     0.005 C 
ATOM     10  C   UNL     1      -4.155   0.953  -1.279  1.00  0.00     0.010 C 
ATOM     11  C   UNL     1      -1.701   1.198  -1.579  1.00  0.00     0.073 C 
ATOM     12  C   UNL     1      -3.098   3.129  -0.745  1.00  0.00     0.012 C 
ATOM     13  C   UNL     1      -0.199   1.081   0.441  1.00  0.00     0.009 C 
ATOM     14  C   UNL     1      -0.336   1.549  -1.002  1.00  0.00    -0.013 C 
ATOM     15  C   UNL     1      -1.783   1.712  -2.989  1.00  0.00     0.160 C 
ATOM     16  C   UNL     1       0.748   0.908  -1.887  1.00  0.00    -0.001 C 
ATOM     17  C   UNL     1      -0.091   3.068  -1.050  1.00  0.00     0.013 C 
ATOM     18  O   UNL     1      -2.839   2.038  -3.489  1.00  0.00    -0.294 OA
ATOM     19  C   UNL     1      -0.609   1.801  -3.767  1.00  0.00     0.052 C 
ATOM     20  C   UNL     1       0.613   1.474  -3.271  1.00  0.00    -0.035 C 
ATOM     21  C   UNL     1       2.123   1.113  -1.279  1.00  0.00     0.013 C 
ATOM     22  C   UNL     1       0.517  -0.605  -1.975  1.00  0.00     0.017 C 
ATOM     23  C   UNL     1       1.794   1.725  -4.107  1.00  0.00    -0.041 C 
ATOM     24  C   UNL     1       3.254   0.942  -2.283  1.00  0.00     0.012 C 
ATOM     25  C   UNL     1       3.118   1.930  -3.438  1.00  0.00    -0.007 C 
ATOM     26  C   UNL     1       1.647   1.727  -5.428  1.00  0.00    -0.010 C 
ATOM     27  C   UNL     1       4.284   1.785  -4.403  1.00  0.00     0.013 C 
ATOM     28  C   UNL     1       3.162   3.353  -2.872  1.00  0.00     0.016 C 
ATOM     29  C   UNL     1       2.777   1.884  -6.401  1.00  0.00     0.026 C 
ATOM     30  C   UNL     1       3.996   2.500  -5.719  1.00  0.00     0.018 C 
ATOM     31  C   UNL     1       3.145   0.516  -6.981  1.00  0.00     0.022 C 
BRANCH  29  32
ATOM     32  C   UNL     1       2.333   2.787  -7.529  1.00  0.00     0.051 C 
ATOM     33  O   UNL     1       2.921   3.820  -7.743  1.00  0.00    -0.549 OA
ATOM     34  O   UNL     1       1.284   2.441  -8.292  1.00  0.00    -0.549 OA
ENDBRANCH  29  32
ENDBRANCH   1   2
BRANCH   1  35
ATOM     35  C   UNL     1      -7.365   0.256   1.793  1.00  0.00     0.320 C 
BRANCH  35  36
ATOM     36  O   UNL     1      -7.078  -0.935   2.529  1.00  0.00    -0.371 OA
ATOM     37  H   UNL     1      -6.886  -0.704   3.472  1.00  0.00     0.213 HD
ENDBRANCH  35  36
ENDBRANCH   1  35
TORSDOF 4
