REMARK SMILES O=C(Cc1ccc(N2CCC([NH+]3CCC([C@H](O)c4ccccc4)CC3)CC2)cc1)NCc1ccccc1
REMARK SMILES IDX 4 1 5 2 6 3 7 4 28 5 29 6 3 7 2 8 30 9 1 11 31 12 32 13
REMARK SMILES IDX 35 14 36 15 34 16 37 17 33 18 8 19 27 20 9 21 26 22 10 23
REMARK SMILES IDX 11 24 12 25 25 26 13 27 24 29 14 30 15 31 16 32 18 33 23 34
REMARK SMILES IDX 19 35 22 36 20 37 21 38 17 39
REMARK H PARENT 30 10 12 28 17 40
REMARK Flexibility Score: inf
ROOT
ATOM      1  C   UNL     1       1.171   2.086   0.002  1.00  0.00    -0.039 A 
ATOM      2  C   UNL     1      -0.017   1.377   0.010  1.00  0.00     0.006 A 
ATOM      3  C   UNL     1       0.002  -0.004   0.002  1.00  0.00     0.026 A 
ATOM      4  C   UNL     1       1.215  -0.681  -0.013  1.00  0.00     0.037 A 
ATOM      5  C   UNL     1       2.406   0.035  -0.021  1.00  0.00     0.026 A 
ATOM      6  C   UNL     1       2.380   1.416  -0.013  1.00  0.00     0.006 A 
ENDROOT
BRANCH   1   7
ATOM      7  C   UNL     1       1.146   3.593   0.010  1.00  0.00     0.135 C 
BRANCH   7   8
ATOM      8  C   UNL     1       1.151   4.088   1.433  1.00  0.00     0.224 C 
ATOM      9  N   UNL     1       1.132   5.412   1.687  1.00  0.00    -0.352 N 
ATOM     10  H   UNL     1       1.114   6.085   0.907  1.00  0.00     0.163 HD
ATOM     11  O   UNL     1       1.173   3.295   2.351  1.00  0.00    -0.275 OA
BRANCH   9  12
ATOM     12  C   UNL     1       1.137   5.893   3.070  1.00  0.00     0.151 C 
BRANCH  12  13
ATOM     13  C   UNL     1       1.113   7.399   3.078  1.00  0.00    -0.029 A 
ATOM     14  C   UNL     1       1.068  10.164   3.093  1.00  0.00     0.000 A 
ATOM     15  C   UNL     1       2.276   9.492   3.079  1.00  0.00     0.000 A 
ATOM     16  C   UNL     1      -0.118   9.453   3.100  1.00  0.00     0.000 A 
ATOM     17  C   UNL     1       2.299   8.110   3.076  1.00  0.00     0.005 A 
ATOM     18  C   UNL     1      -0.095   8.071   3.093  1.00  0.00     0.005 A 
ENDBRANCH  12  13
ENDBRANCH   9  12
ENDBRANCH   7   8
ENDBRANCH   1   7
BRANCH   4  19
ATOM     19  N   UNL     1       1.238  -2.077  -0.021  1.00  0.00    -0.371 N 
ATOM     20  C   UNL     1       2.617  -2.581  -0.036  1.00  0.00     0.122 C 
ATOM     21  C   UNL     1       0.487  -2.622   1.118  1.00  0.00     0.122 C 
ATOM     22  C   UNL     1       2.603  -4.104  -0.191  1.00  0.00     0.086 C 
ATOM     23  C   UNL     1       0.410  -4.145   0.998  1.00  0.00     0.086 C 
ATOM     24  C   UNL     1       1.827  -4.723   0.975  1.00  0.00     0.187 C 
BRANCH  24  25
ATOM     25  N   UNL     1       1.762  -6.180   0.802  1.00  0.00    -0.332 N 
ATOM     26  C   UNL     1       1.128  -6.820   1.962  1.00  0.00     0.262 C 
ATOM     27  C   UNL     1       1.069  -6.532  -0.444  1.00  0.00     0.262 C 
ATOM     28  H   UNL     1       2.727  -6.536   0.736  1.00  0.00     0.348 HD
ATOM     29  C   UNL     1       1.208  -8.341   1.814  1.00  0.00     0.068 C 
ATOM     30  C   UNL     1       1.147  -8.044  -0.663  1.00  0.00     0.068 C 
ATOM     31  C   UNL     1       0.499  -8.762   0.524  1.00  0.00     0.033 C 
BRANCH  31  32
ATOM     32  C   UNL     1       0.628 -10.275   0.340  1.00  0.00     0.148 C 
BRANCH  32  33
ATOM     33  C   UNL     1      -0.071 -10.688  -0.930  1.00  0.00    -0.019 A 
ATOM     34  C   UNL     1      -1.377 -11.137  -0.886  1.00  0.00     0.006 A 
ATOM     35  C   UNL     1       0.593 -10.612  -2.140  1.00  0.00     0.006 A 
ATOM     36  C   UNL     1      -2.018 -11.516  -2.051  1.00  0.00     0.000 A 
ATOM     37  C   UNL     1      -0.046 -10.995  -3.305  1.00  0.00     0.000 A 
ATOM     38  C   UNL     1      -1.352 -11.445  -3.260  1.00  0.00     0.000 A 
ENDBRANCH  32  33
BRANCH  32  39
ATOM     39  O   UNL     1       2.010 -10.629   0.260  1.00  0.00    -0.388 OA
ATOM     40  H   UNL     1       2.470 -10.358   1.094  1.00  0.00     0.211 HD
ENDBRANCH  32  39
ENDBRANCH  31  32
ENDBRANCH  24  25
ENDBRANCH   4  19
TORSDOF 9
