REMARK SMILES O=C(NNC(=O)c1c[nH]c(=S)n1-c1ccc(F)cc1)c1cc(-c2cccs2)nc2ccccc12
REMARK SMILES IDX 2 1 1 2 3 3 20 5 32 6 33 7 31 8 34 9 30 10 29 11 28 12 21 13
REMARK SMILES IDX 22 14 23 15 27 16 24 17 26 18 25 19 4 20 5 21 6 23 7 24
REMARK SMILES IDX 12 25 8 26 10 27 9 28 11 29 13 31 19 32 14 33 18 34 15 35
REMARK SMILES IDX 16 36 17 37
REMARK H PARENT 3 4 4 22 9 30
REMARK Flexibility Score: inf
ROOT
ATOM      1  C   UNL     1       0.128  -5.068  -0.623  1.00  0.00     0.270 C 
ATOM      2  O   UNL     1      -1.046  -4.759  -0.677  1.00  0.00    -0.267 OA
ATOM      3  N   UNL     1       1.070  -4.114  -0.491  1.00  0.00    -0.263 N 
ATOM      4  H   UNL     1       2.066  -4.375  -0.445  1.00  0.00     0.191 HD
ENDROOT
BRANCH   1   5
ATOM      5  C   UNL     1       0.522  -6.491  -0.701  1.00  0.00     0.053 A 
ATOM      6  C   UNL     1      -2.749  -8.299  -0.704  1.00  0.00     0.001 A 
ATOM      7  C   UNL     1      -1.849  -7.275  -0.679  1.00  0.00     0.011 A 
ATOM      8  C   UNL     1      -2.323  -9.623  -0.779  1.00  0.00     0.002 A 
ATOM      9  C   UNL     1      -0.479  -7.558  -0.727  1.00  0.00     0.013 A 
ATOM     10  C   UNL     1      -0.999  -9.933  -0.827  1.00  0.00     0.029 A 
ATOM     11  C   UNL     1      -0.040  -8.903  -0.802  1.00  0.00     0.072 A 
ATOM     12  N   UNL     1       1.265  -9.178  -0.849  1.00  0.00    -0.247 NA
ATOM     13  C   UNL     1       1.855  -6.867  -0.759  1.00  0.00     0.044 A 
ATOM     14  C   UNL     1       2.185  -8.232  -0.828  1.00  0.00     0.082 A 
BRANCH  14  15
ATOM     15  C   UNL     1       3.607  -8.620  -0.883  1.00  0.00     0.053 A 
ATOM     16  S   UNL     1       5.058  -7.580  -0.870  1.00  0.00    -0.142 S 
ATOM     17  C   UNL     1       4.159  -9.874  -0.952  1.00  0.00     0.022 A 
ATOM     18  C   UNL     1       6.292  -8.867  -0.964  1.00  0.00     0.065 A 
ATOM     19  C   UNL     1       5.529  -9.991  -0.998  1.00  0.00     0.012 A 
ENDBRANCH  14  15
ENDBRANCH   1   5
BRANCH   3  20
ATOM     20  N   UNL     1       0.697  -2.765  -0.417  1.00  0.00    -0.262 N 
ATOM     21  C   UNL     1       1.639  -1.811  -0.285  1.00  0.00     0.288 C 
ATOM     22  H   UNL     1      -0.298  -2.503  -0.463  1.00  0.00     0.191 HD
ATOM     23  O   UNL     1       2.818  -2.112  -0.314  1.00  0.00    -0.266 OA
BRANCH  21  24
ATOM     24  C   UNL     1       1.244  -0.410  -0.107  1.00  0.00     0.131 A 
ATOM     25  N   UNL     1      -0.059   0.070   0.053  1.00  0.00    -0.281 N 
ATOM     26  C   UNL     1       2.073   0.658  -0.068  1.00  0.00     0.117 A 
ATOM     27  C   UNL     1       0.013   1.410   0.184  1.00  0.00     0.182 A 
ATOM     28  N   UNL     1       1.306   1.778   0.112  1.00  0.00    -0.336 N 
ATOM     29  S   UNL     1      -1.317   2.466   0.399  1.00  0.00    -0.040 S 
ATOM     30  H   UNL     1       1.660   2.743   0.181  1.00  0.00     0.168 HD
BRANCH  25  31
ATOM     31  C   UNL     1      -1.229  -0.701   0.074  1.00  0.00     0.049 A 
ATOM     32  C   UNL     1      -2.146  -0.602  -0.965  1.00  0.00     0.030 A 
ATOM     33  C   UNL     1      -1.470  -1.569   1.130  1.00  0.00     0.030 A 
ATOM     34  C   UNL     1      -3.298  -1.363  -0.942  1.00  0.00     0.041 A 
ATOM     35  C   UNL     1      -2.626  -2.325   1.151  1.00  0.00     0.041 A 
ATOM     36  C   UNL     1      -3.538  -2.225   0.115  1.00  0.00     0.123 A 
ATOM     37  F   UNL     1      -4.666  -2.970   0.134  1.00  0.00    -0.207 F 
ENDBRANCH  25  31
ENDBRANCH  21  24
ENDBRANCH   3  20
TORSDOF 5
