REMARK SMILES CCOC(=O)c1c(NC(=O)[C@@H](C)[NH2+]Cc2ccccc2CN2CCCC2=O)sc2c1CCCC2
REMARK SMILES IDX 11 1 12 2 9 3 8 4 10 6 7 7 6 8 30 9 28 10 31 11 29 12 32 13
REMARK SMILES IDX 34 14 33 15 4 16 5 17 3 18 2 19 1 20 13 21 14 24 15 25 20 26
REMARK SMILES IDX 16 27 19 28 17 29 18 30 21 31 22 32 26 33 23 34 25 35 27 36
REMARK SMILES IDX 24 37
REMARK H PARENT 8 5 13 22 13 23
REMARK Flexibility Score: inf
ROOT
ATOM      1  C   UNL     1       0.413   0.869   2.316  1.00  0.00     0.270 C 
ATOM      2  C   UNL     1       0.052  -0.591   2.602  1.00  0.00     0.086 C 
ENDROOT
BRANCH   1   3
ATOM      3  C   UNL     1       0.204   1.690   3.562  1.00  0.00     0.282 C 
ATOM      4  N   UNL     1       0.891   1.399   4.685  1.00  0.00    -0.312 N 
ATOM      5  H   UNL     1       1.558   0.614   4.691  1.00  0.00     0.171 HD
ATOM      6  O   UNL     1      -0.582   2.614   3.555  1.00  0.00    -0.268 OA
BRANCH   4   7
ATOM      7  C   UNL     1       0.699   2.154   5.831  1.00  0.00     0.110 A 
ATOM      8  C   UNL     1       1.303   2.007   7.073  1.00  0.00     0.098 A 
ATOM      9  C   UNL     1       0.926   2.944   8.117  1.00  0.00    -0.017 A 
ATOM     10  S   UNL     1      -0.357   3.507   6.064  1.00  0.00    -0.122 S 
ATOM     11  C   UNL     1       1.502   2.918   9.528  1.00  0.00     0.038 C 
ATOM     12  C   UNL     1       0.005   3.864   7.760  1.00  0.00     0.011 A 
ATOM     13  C   UNL     1       1.239   4.270  10.192  1.00  0.00     0.005 C 
ATOM     14  C   UNL     1      -0.575   4.944   8.620  1.00  0.00     0.047 C 
ATOM     15  C   UNL     1      -0.247   4.623  10.086  1.00  0.00     0.006 C 
BRANCH   8  16
ATOM     16  C   UNL     1       2.285   0.949   7.319  1.00  0.00     0.341 C 
ATOM     17  O   UNL     1       3.467   1.159   7.123  1.00  0.00    -0.246 OA
BRANCH  16  18
ATOM     18  O   UNL     1       1.880  -0.258   7.764  1.00  0.00    -0.462 OA
BRANCH  18  19
ATOM     19  C   UNL     1       2.908  -1.258   7.986  1.00  0.00     0.230 C 
ATOM     20  C   UNL     1       2.262  -2.552   8.486  1.00  0.00     0.049 C 
ENDBRANCH  18  19
ENDBRANCH  16  18
ENDBRANCH   8  16
ENDBRANCH   4   7
ENDBRANCH   1   3
BRANCH   1  21
ATOM     21  N   UNL     1      -0.445   1.384   1.241  1.00  0.00    -0.332 N 
ATOM     22  H   UNL     1      -1.384   0.969   1.327  1.00  0.00     0.347 HD
ATOM     23  H   UNL     1      -0.525   2.407   1.329  1.00  0.00     0.347 HD
BRANCH  21  24
ATOM     24  C   UNL     1       0.110   1.055  -0.079  1.00  0.00     0.298 C 
BRANCH  24  25
ATOM     25  C   UNL     1      -0.795   1.598  -1.154  1.00  0.00     0.011 A 
ATOM     26  C   UNL     1      -0.740   2.937  -1.492  1.00  0.00    -0.020 A 
ATOM     27  C   UNL     1      -1.676   0.756  -1.807  1.00  0.00     0.010 A 
ATOM     28  C   UNL     1      -1.570   3.436  -2.479  1.00  0.00     0.006 A 
ATOM     29  C   UNL     1      -2.509   1.255  -2.790  1.00  0.00     0.001 A 
ATOM     30  C   UNL     1      -2.454   2.595  -3.128  1.00  0.00     0.000 A 
BRANCH  26  31
ATOM     31  C   UNL     1       0.225   3.854  -0.785  1.00  0.00     0.155 C 
BRANCH  31  32
ATOM     32  N   UNL     1       0.087   5.212  -1.317  1.00  0.00    -0.338 N 
ATOM     33  C   UNL     1       0.808   5.702  -2.341  1.00  0.00     0.222 C 
ATOM     34  C   UNL     1      -0.851   6.214  -0.798  1.00  0.00     0.120 C 
ATOM     35  C   UNL     1       0.395   7.128  -2.631  1.00  0.00     0.102 C 
ATOM     36  O   UNL     1       1.663   5.089  -2.944  1.00  0.00    -0.275 OA
ATOM     37  C   UNL     1      -0.958   7.289  -1.901  1.00  0.00     0.031 C 
ENDBRANCH  31  32
ENDBRANCH  26  31
ENDBRANCH  24  25
ENDBRANCH  21  24
ENDBRANCH   1  21
TORSDOF 10
