REMARK SMILES CC1(C)C[C@@H]2C3=CC[C@H]4[C@@]5(C)CC[C@@H](O)C(C)(C)[C@@H]5CC[C@@]4(C)[C@@]3(C)CC[C@@]2(CO)[C@@H](O)[C@@H]1O
REMARK SMILES IDX 1 1 2 2 4 3 5 4 6 5 7 6 8 7 9 8 10 9 12 10 13 11 14 12 16 13
REMARK SMILES IDX 19 14 20 15 21 16 22 17 24 18 26 19 27 20 28 21 31 22 33 23
REMARK SMILES IDX 25 24 23 25 17 26 18 27 11 28 3 29 34 30 32 32 29 34 30 35
REMARK SMILES IDX 15 37
REMARK H PARENT 34 31 32 33 30 36 15 38
REMARK Flexibility Score: inf
ROOT
ATOM      1  C   UNL     1       5.748  -2.890  -3.414  1.00  0.00     0.014 C 
ATOM      2  C   UNL     1       6.406  -1.581  -2.960  1.00  0.00    -0.006 C 
ATOM      3  C   UNL     1       5.371  -0.695  -2.276  1.00  0.00     0.018 C 
ATOM      4  C   UNL     1       5.020  -1.214  -0.887  1.00  0.00     0.027 C 
ATOM      5  C   UNL     1       3.967  -0.338  -0.253  1.00  0.00    -0.064 C 
ATOM      6  C   UNL     1       3.181   0.401  -0.965  1.00  0.00    -0.027 C 
ATOM      7  C   UNL     1       1.967   1.095  -0.456  1.00  0.00     0.032 C 
ATOM      8  C   UNL     1       1.619   0.844   1.002  1.00  0.00     0.006 C 
ATOM      9  C   UNL     1       0.084   0.822   1.122  1.00  0.00    -0.025 C 
ATOM     10  C   UNL     1      -0.485   1.964   0.260  1.00  0.00     0.010 C 
ATOM     11  C   UNL     1      -2.008   1.957   0.355  1.00  0.00     0.033 C 
ATOM     12  C   UNL     1      -2.583   0.650  -0.166  1.00  0.00     0.120 C 
ATOM     13  C   UNL     1      -1.965  -0.584   0.487  1.00  0.00    -0.006 C 
ATOM     14  C   UNL     1      -0.458  -0.494   0.591  1.00  0.00     0.003 C 
ATOM     15  C   UNL     1       0.147  -1.665   1.366  1.00  0.00     0.005 C 
ATOM     16  C   UNL     1       1.659  -1.679   1.097  1.00  0.00     0.008 C 
ATOM     17  C   UNL     1       2.295  -0.383   1.587  1.00  0.00    -0.020 C 
ATOM     18  C   UNL     1       3.799  -0.384   1.244  1.00  0.00    -0.006 C 
ATOM     19  C   UNL     1       4.468  -1.653   1.759  1.00  0.00     0.012 C 
ATOM     20  C   UNL     1       5.940  -1.734   1.394  1.00  0.00     0.014 C 
ATOM     21  C   UNL     1       6.269  -1.259  -0.015  1.00  0.00     0.029 C 
ATOM     22  C   UNL     1       7.268  -2.236  -0.647  1.00  0.00     0.152 C 
ATOM     23  C   UNL     1       7.610  -1.879  -2.081  1.00  0.00     0.149 C 
ATOM     24  C   UNL     1       4.428   0.846   1.910  1.00  0.00     0.017 C 
ATOM     25  C   UNL     1       2.240  -0.353   3.127  1.00  0.00     0.012 C 
ATOM     26  C   UNL     1      -2.308  -1.780  -0.439  1.00  0.00     0.014 C 
ATOM     27  C   UNL     1      -2.639  -0.861   1.832  1.00  0.00     0.014 C 
ATOM     28  C   UNL     1      -0.334   1.109   2.564  1.00  0.00     0.012 C 
ATOM     29  C   UNL     1       6.904  -0.846  -4.222  1.00  0.00     0.014 C 
ENDROOT
BRANCH  23  30
ATOM     30  O   UNL     1       8.542  -0.794  -2.132  1.00  0.00    -0.390 OA
ATOM     31  H   UNL     1       8.098   0.032  -1.815  1.00  0.00     0.211 HD
ENDBRANCH  23  30
BRANCH  22  32
ATOM     32  O   UNL     1       6.743  -3.566  -0.584  1.00  0.00    -0.390 OA
ATOM     33  H   UNL     1       5.885  -3.606  -1.077  1.00  0.00     0.211 HD
ENDBRANCH  22  32
BRANCH  21  34
ATOM     34  C   UNL     1       6.927   0.117   0.068  1.00  0.00     0.166 C 
BRANCH  34  35
ATOM     35  O   UNL     1       8.059   0.052   0.938  1.00  0.00    -0.396 OA
ATOM     36  H   UNL     1       8.711  -0.604   0.584  1.00  0.00     0.210 HD
ENDBRANCH  34  35
ENDBRANCH  21  34
BRANCH  12  37
ATOM     37  O   UNL     1      -2.405   0.572  -1.583  1.00  0.00    -0.393 OA
ATOM     38  H   UNL     1      -1.439   0.615  -1.795  1.00  0.00     0.210 HD
ENDBRANCH  12  37
TORSDOF 5
