REMARK SMILES C/C=C(/NNC(=O)CSc1nnc(-c2ccccc2)n1-c1ccc(C)cc1)c1ccc(O)cc1
REMARK SMILES IDX 5 1 6 2 7 3 4 5 3 7 1 8 2 9 28 10 34 11 29 12 33 13 30 14
REMARK SMILES IDX 31 15 32 16 8 18 9 19 10 20 20 21 11 22 13 23 12 24 21 25
REMARK SMILES IDX 27 26 22 27 26 28 23 29 24 30 25 31 14 32 19 33 15 34 18 35
REMARK SMILES IDX 16 36 17 37
REMARK H PARENT 5 4 4 6 32 17
REMARK Flexibility Score: inf
ROOT
ATOM      1  N   UNL     1      -5.228   1.098   0.346  1.00  0.00    -0.269 N 
ATOM      2  C   UNL     1      -4.143   1.893   0.423  1.00  0.00     0.248 C 
ATOM      3  O   UNL     1      -4.263   3.096   0.324  1.00  0.00    -0.272 OA
ATOM      4  H   UNL     1      -5.126   0.077   0.431  1.00  0.00     0.191 HD
ENDROOT
BRANCH   1   5
ATOM      5  N   UNL     1      -6.496   1.662   0.151  1.00  0.00    -0.298 N 
ATOM      6  H   UNL     1      -6.599   2.683   0.067  1.00  0.00     0.188 HD
BRANCH   5   7
ATOM      7  C   UNL     1      -7.620   0.839   0.072  1.00  0.00     0.057 C 
ATOM      8  C   UNL     1      -8.711  -1.361   0.243  1.00  0.00     0.038 C 
ATOM      9  C   UNL     1      -7.488  -0.484   0.181  1.00  0.00    -0.002 C 
BRANCH   7  10
ATOM     10  C   UNL     1      -8.960   1.434  -0.134  1.00  0.00    -0.001 A 
ATOM     11  C   UNL     1      -9.398   2.473   0.688  1.00  0.00     0.014 A 
ATOM     12  C   UNL     1      -9.786   0.962  -1.155  1.00  0.00     0.014 A 
ATOM     13  C   UNL     1     -10.646   3.025   0.493  1.00  0.00     0.047 A 
ATOM     14  C   UNL     1     -11.034   1.515  -1.341  1.00  0.00     0.047 A 
ATOM     15  C   UNL     1     -11.467   2.549  -0.521  1.00  0.00     0.115 A 
BRANCH  15  16
ATOM     16  O   UNL     1     -12.696   3.095  -0.710  1.00  0.00    -0.508 OA
ATOM     17  H   UNL     1     -13.327   2.335  -0.646  1.00  0.00     0.293 HD
ENDBRANCH  15  16
ENDBRANCH   7  10
ENDBRANCH   5   7
ENDBRANCH   1   5
BRANCH   2  18
ATOM     18  C   UNL     1      -2.779   1.287   0.633  1.00  0.00     0.180 C 
BRANCH  18  19
ATOM     19  S   UNL     1      -1.537   2.603   0.692  1.00  0.00    -0.076 SA
BRANCH  19  20
ATOM     20  C   UNL     1      -0.082   1.639   0.938  1.00  0.00     0.196 A 
ATOM     21  N   UNL     1       1.196   2.114   1.056  1.00  0.00    -0.270 N 
ATOM     22  N   UNL     1      -0.021   0.330   1.038  1.00  0.00    -0.122 NA
ATOM     23  C   UNL     1       1.990   1.001   1.228  1.00  0.00     0.169 A 
ATOM     24  N   UNL     1       1.196  -0.045   1.208  1.00  0.00    -0.129 NA
BRANCH  21  25
ATOM     25  C   UNL     1       1.610   3.452   1.010  1.00  0.00     0.050 A 
ATOM     26  C   UNL     1       1.208   4.339   2.000  1.00  0.00     0.027 A 
ATOM     27  C   UNL     1       2.429   3.892  -0.021  1.00  0.00     0.027 A 
ATOM     28  C   UNL     1       1.618   5.657   1.952  1.00  0.00     0.005 A 
ATOM     29  C   UNL     1       2.832   5.213  -0.066  1.00  0.00     0.005 A 
ATOM     30  C   UNL     1       2.429   6.094   0.921  1.00  0.00    -0.051 A 
ATOM     31  C   UNL     1       2.874   7.532   0.872  1.00  0.00     0.044 C 
ENDBRANCH  21  25
BRANCH  23  32
ATOM     32  C   UNL     1       3.457   0.987   1.401  1.00  0.00     0.020 A 
ATOM     33  C   UNL     1       4.169  -0.204   1.254  1.00  0.00     0.012 A 
ATOM     34  C   UNL     1       4.138   2.166   1.708  1.00  0.00     0.012 A 
ATOM     35  C   UNL     1       5.539  -0.211   1.417  1.00  0.00     0.001 A 
ATOM     36  C   UNL     1       5.508   2.145   1.874  1.00  0.00     0.001 A 
ATOM     37  C   UNL     1       6.207   0.961   1.726  1.00  0.00     0.000 A 
ENDBRANCH  23  32
ENDBRANCH  19  20
ENDBRANCH  18  19
ENDBRANCH   2  18
TORSDOF 9
