REMARK SMILES O=C(/C=C/c1ccc(S(=O)(=O)NC2CC2)cc1)NC[C@@H](c1ccccc1)c1c[nH]c2ccccc12
REMARK SMILES IDX 3 1 4 2 2 3 18 4 1 6 19 7 20 8 21 9 24 10 25 11 23 12 26 13
REMARK SMILES IDX 22 14 27 15 35 16 28 17 30 18 34 19 29 20 31 21 33 22 32 24
REMARK SMILES IDX 5 25 17 26 6 27 16 28 7 29 8 30 9 31 10 32 11 33 12 34 13 36
REMARK SMILES IDX 15 37 14 38
REMARK H PARENT 18 5 29 23 12 35
REMARK Flexibility Score: inf
ROOT
ATOM      1  C   UNL     1      -2.914   4.279   5.430  1.00  0.00     0.072 C 
ATOM      2  C   UNL     1      -3.115   3.063   4.882  1.00  0.00     0.014 C 
ENDROOT
BRANCH   1   3
ATOM      3  C   UNL     1      -3.670   4.680   6.618  1.00  0.00     0.244 C 
ATOM      4  N   UNL     1      -3.469   5.896   7.166  1.00  0.00    -0.352 N 
ATOM      5  H   UNL     1      -2.784   6.542   6.748  1.00  0.00     0.163 HD
ATOM      6  O   UNL     1      -4.478   3.917   7.112  1.00  0.00    -0.270 OA
BRANCH   4   7
ATOM      7  C   UNL     1      -4.224   6.297   8.355  1.00  0.00     0.129 C 
BRANCH   7   8
ATOM      8  C   UNL     1      -3.810   7.710   8.769  1.00  0.00     0.071 C 
BRANCH   8   9
ATOM      9  C   UNL     1      -4.211   8.687   7.694  1.00  0.00    -0.039 A 
ATOM     10  C   UNL     1      -4.946  10.478   5.720  1.00  0.00     0.000 A 
ATOM     11  C   UNL     1      -5.908   9.714   6.353  1.00  0.00     0.000 A 
ATOM     12  C   UNL     1      -3.616  10.347   6.074  1.00  0.00     0.000 A 
ATOM     13  C   UNL     1      -5.540   8.815   7.337  1.00  0.00     0.004 A 
ATOM     14  C   UNL     1      -3.248   9.451   7.060  1.00  0.00     0.004 A 
ENDBRANCH   8   9
BRANCH   8  15
ATOM     15  C   UNL     1      -4.495   8.076  10.060  1.00  0.00    -0.013 A 
ATOM     16  C   UNL     1      -3.842   8.430  11.323  1.00  0.00     0.003 A 
ATOM     17  C   UNL     1      -5.819   8.146  10.270  1.00  0.00     0.087 A 
ATOM     18  C   UNL     1      -4.880   8.691  12.237  1.00  0.00     0.046 A 
ATOM     19  C   UNL     1      -2.511   8.541  11.730  1.00  0.00     0.010 A 
ATOM     20  N   UNL     1      -6.068   8.506  11.567  1.00  0.00    -0.361 N 
ATOM     21  C   UNL     1      -4.563   9.058  13.541  1.00  0.00     0.026 A 
ATOM     22  C   UNL     1      -2.223   8.903  13.016  1.00  0.00     0.001 A 
ATOM     23  H   UNL     1      -7.004   8.621  11.980  1.00  0.00     0.166 HD
ATOM     24  C   UNL     1      -3.242   9.162  13.921  1.00  0.00     0.002 A 
ENDBRANCH   8  15
ENDBRANCH   7   8
ENDBRANCH   4   7
ENDBRANCH   1   3
BRANCH   2  25
ATOM     25  C   UNL     1      -2.356   2.660   3.687  1.00  0.00    -0.025 A 
ATOM     26  C   UNL     1      -1.425   3.534   3.118  1.00  0.00     0.009 A 
ATOM     27  C   UNL     1      -2.561   1.400   3.117  1.00  0.00     0.009 A 
ATOM     28  C   UNL     1      -0.714   3.147   2.002  1.00  0.00     0.022 A 
ATOM     29  C   UNL     1      -1.846   1.029   1.998  1.00  0.00     0.022 A 
ATOM     30  C   UNL     1      -0.927   1.900   1.439  1.00  0.00     0.082 A 
BRANCH  30  31
ATOM     31  S   UNL     1      -0.017   1.417   0.010  1.00  0.00     0.240 S 
ATOM     32  O   UNL     1       0.002  -0.004   0.002  1.00  0.00    -0.207 OA
ATOM     33  O   UNL     1       1.172   2.195   0.003  1.00  0.00    -0.207 OA
BRANCH  31  34
ATOM     34  N   UNL     1      -0.897   1.885  -1.312  1.00  0.00    -0.208 NA
ATOM     35  H   UNL     1      -1.285   1.176  -1.951  1.00  0.00     0.141 HD
BRANCH  34  36
ATOM     36  C   UNL     1      -1.125   3.309  -1.574  1.00  0.00     0.070 C 
ATOM     37  C   UNL     1      -1.165   3.761  -3.035  1.00  0.00     0.022 C 
ATOM     38  C   UNL     1      -2.456   3.705  -2.215  1.00  0.00     0.022 C 
ENDBRANCH  34  36
ENDBRANCH  31  34
ENDBRANCH  30  31
ENDBRANCH   2  25
TORSDOF 9
