REMARK SMILES Cn1c(=O)c2[n-]c(Sc3n[n-]c(NN=C4CCCCC4)n3)nc2n(C)c1=O
REMARK SMILES IDX 9 1 21 2 12 3 11 4 10 5 8 6 7 7 25 8 24 9 26 10 23 11 2 12
REMARK SMILES IDX 27 13 22 14 5 15 3 16 1 17 6 18 4 19 13 20 14 22 15 23 20 24
REMARK SMILES IDX 16 25 19 26 17 27 18 28
REMARK H PARENT 13 21
REMARK Flexibility Score: inf
ROOT
ATOM      1  C   UNL     1       3.283   2.179   0.422  1.00  0.00     0.129 A 
ATOM      2  N   UNL     1       2.439   1.129   0.167  1.00  0.00    -0.333 NA
ATOM      3  C   UNL     1       1.176   1.659   0.184  1.00  0.00     0.054 A 
ATOM      4  N   UNL     1       1.297   2.940   0.429  1.00  0.00    -0.272 NA
ATOM      5  N   UNL     1       2.537   3.245   0.574  1.00  0.00    -0.211 NA
ENDROOT
BRANCH   1   6
ATOM      6  S   UNL     1       5.040   2.107   0.524  1.00  0.00    -0.075 SA
BRANCH   6   7
ATOM      7  C   UNL     1       5.396   3.798   0.868  1.00  0.00    -0.015 A 
ATOM      8  C   UNL     1       3.207   7.488   1.425  1.00  0.00     0.155 C 
ATOM      9  N   UNL     1       4.644   7.206   1.465  1.00  0.00    -0.300 N 
ATOM     10  C   UNL     1       5.518   8.200   1.712  1.00  0.00     0.330 A 
ATOM     11  C   UNL     1       5.102   5.916   1.250  1.00  0.00     0.042 A 
ATOM     12  N   UNL     1       6.843   7.978   1.757  1.00  0.00    -0.263 N 
ATOM     13  O   UNL     1       5.098   9.326   1.898  1.00  0.00    -0.248 OA
ATOM     14  N   UNL     1       4.498   4.756   0.991  1.00  0.00    -0.415 NA
ATOM     15  C   UNL     1       6.472   5.676   1.295  1.00  0.00     0.046 A 
ATOM     16  C   UNL     1       7.348   6.744   1.556  1.00  0.00     0.259 A 
ATOM     17  C   UNL     1       7.752   9.095   2.028  1.00  0.00     0.158 C 
ATOM     18  N   UNL     1       6.639   4.319   1.054  1.00  0.00    -0.424 NA
ATOM     19  O   UNL     1       8.552   6.556   1.600  1.00  0.00    -0.269 OA
ENDBRANCH   6   7
ENDBRANCH   1   6
BRANCH   3  20
ATOM     20  N   UNL     1      -0.010   0.969  -0.025  1.00  0.00    -0.341 N 
ATOM     21  H   UNL     1       0.009  -0.044  -0.211  1.00  0.00     0.094 HD
BRANCH  20  22
ATOM     22  N   UNL     1      -1.234   1.650   0.017  1.00  0.00    -0.242 NA
ATOM     23  C   UNL     1      -2.332   0.998  -0.073  1.00  0.00     0.024 C 
ATOM     24  C   UNL     1      -3.657   1.722  -0.177  1.00  0.00     0.052 C 
ATOM     25  C   UNL     1      -2.338  -0.514  -0.083  1.00  0.00     0.052 C 
ATOM     26  C   UNL     1      -4.606   1.155   0.883  1.00  0.00     0.006 C 
ATOM     27  C   UNL     1      -3.337  -1.000   0.979  1.00  0.00     0.006 C 
ATOM     28  C   UNL     1      -4.703  -0.363   0.720  1.00  0.00     0.001 C 
ENDBRANCH  20  22
ENDBRANCH   3  20
TORSDOF 4
