REMARK SMILES CC(C)[C@@H](NC(=O)c1cccc(Cl)c1)C(=O)N/N=C\c1cn(Cc2ccc(F)cc2)c2ccccc12
REMARK SMILES IDX 15 1 16 2 17 3 4 5 2 6 1 7 3 8 5 9 6 10 7 12 8 13 14 14 9 15
REMARK SMILES IDX 12 16 10 17 11 18 13 19 18 20 19 21 20 22 36 23 21 24 31 25
REMARK SMILES IDX 35 26 22 27 32 28 34 29 33 30 23 31 24 32 30 33 25 34 29 35
REMARK SMILES IDX 26 36 27 37 28 38
REMARK H PARENT 17 4 5 11
REMARK Flexibility Score: inf
ROOT
ATOM      1  C   UNL     1      -4.197   4.951  -0.367  1.00  0.00     0.262 C 
ATOM      2  O   UNL     1      -4.934   5.912  -0.286  1.00  0.00    -0.271 OA
ATOM      3  N   UNL     1      -2.861   5.124  -0.356  1.00  0.00    -0.245 N 
ATOM      4  H   UNL     1      -2.236   4.305  -0.357  1.00  0.00     0.193 HD
ENDROOT
BRANCH   1   5
ATOM      5  C   UNL     1      -4.777   3.565  -0.480  1.00  0.00     0.176 C 
BRANCH   5   6
ATOM      6  C   UNL     1      -4.681   2.860   0.874  1.00  0.00     0.015 C 
ATOM      7  C   UNL     1      -5.182   1.421   0.737  1.00  0.00     0.010 C 
ATOM      8  C   UNL     1      -3.224   2.849   1.341  1.00  0.00     0.010 C 
ENDBRANCH   5   6
BRANCH   5   9
ATOM      9  N   UNL     1      -6.182   3.654  -0.885  1.00  0.00    -0.340 N 
ATOM     10  C   UNL     1      -6.766   2.623  -1.526  1.00  0.00     0.251 C 
ATOM     11  H   UNL     1      -6.724   4.506  -0.680  1.00  0.00     0.164 HD
ATOM     12  O   UNL     1      -6.127   1.618  -1.768  1.00  0.00    -0.269 OA
BRANCH  10  13
ATOM     13  C   UNL     1      -8.184   2.713  -1.935  1.00  0.00     0.041 A 
ATOM     14  C   UNL     1      -8.922   3.863  -1.653  1.00  0.00     0.034 A 
ATOM     15  C   UNL     1      -8.792   1.646  -2.599  1.00  0.00     0.014 A 
ATOM     16  C   UNL     1     -10.245   3.943  -2.041  1.00  0.00     0.041 A 
ATOM     17  C   UNL     1     -10.115   1.736  -2.977  1.00  0.00     0.002 A 
ATOM     18  C   UNL     1     -10.841   2.881  -2.700  1.00  0.00     0.020 A 
ATOM     19  Cl  UNL     1     -11.165   5.375  -1.696  1.00  0.00    -0.084 Cl
ENDBRANCH  10  13
ENDBRANCH   5   9
ENDBRANCH   1   5
BRANCH   3  20
ATOM     20  N   UNL     1      -2.322   6.417  -0.342  1.00  0.00    -0.181 NA
ATOM     21  C   UNL     1      -1.041   6.588  -0.480  1.00  0.00     0.143 C 
BRANCH  21  22
ATOM     22  C   UNL     1      -0.220   5.532  -1.094  1.00  0.00     0.020 A 
ATOM     23  C   UNL     1       1.252   5.464  -1.119  1.00  0.00     0.008 A 
ATOM     24  C   UNL     1      -0.671   4.429  -1.749  1.00  0.00     0.097 A 
ATOM     25  C   UNL     1       1.573   4.285  -1.811  1.00  0.00     0.049 A 
ATOM     26  C   UNL     1       2.266   6.282  -0.626  1.00  0.00     0.011 A 
ATOM     27  N   UNL     1       0.388   3.684  -2.177  1.00  0.00    -0.342 N 
ATOM     28  C   UNL     1       2.909   3.945  -1.996  1.00  0.00     0.027 A 
ATOM     29  C   UNL     1       3.583   5.925  -0.815  1.00  0.00     0.001 A 
ATOM     30  C   UNL     1       3.902   4.763  -1.503  1.00  0.00     0.002 A 
BRANCH  27  31
ATOM     31  C   UNL     1       0.280   2.426  -2.920  1.00  0.00     0.157 C 
BRANCH  31  32
ATOM     32  C   UNL     1       0.323   1.268  -1.957  1.00  0.00    -0.028 A 
ATOM     33  C   UNL     1      -0.854   0.715  -1.490  1.00  0.00     0.008 A 
ATOM     34  C   UNL     1       1.540   0.756  -1.546  1.00  0.00     0.008 A 
ATOM     35  C   UNL     1      -0.816  -0.348  -0.607  1.00  0.00     0.039 A 
ATOM     36  C   UNL     1       1.580  -0.302  -0.659  1.00  0.00     0.039 A 
ATOM     37  C   UNL     1       0.402  -0.858  -0.190  1.00  0.00     0.123 A 
ATOM     38  F   UNL     1       0.440  -1.896   0.674  1.00  0.00    -0.207 F 
ENDBRANCH  31  32
ENDBRANCH  27  31
ENDBRANCH  21  22
ENDBRANCH   3  20
TORSDOF 8
