REMARK SMILES COC(=O)c1ccc(C(=O)N[C@H](c2ccccc2)c2ccc3nc(C(F)(F)F)[nH]c3c2)s1
REMARK SMILES IDX 9 1 10 2 11 3 8 5 5 6 32 7 6 8 7 9 3 10 4 11 2 12 1 13 12 14
REMARK SMILES IDX 13 15 18 16 14 17 17 18 15 19 16 20 19 21 31 22 20 23 30 24
REMARK SMILES IDX 21 25 22 26 29 27 23 28 24 29 25 31 26 32 27 33 28 34
REMARK H PARENT 11 4 29 30
REMARK Flexibility Score: inf
ROOT
ATOM      1  C   UNL     1       1.507  -2.099  -0.023  1.00  0.00     0.262 C 
ATOM      2  O   UNL     1       0.589  -2.897  -0.018  1.00  0.00    -0.268 OA
ATOM      3  N   UNL     1       2.781  -2.539  -0.038  1.00  0.00    -0.340 N 
ATOM      4  H   UNL     1       3.559  -1.864  -0.042  1.00  0.00     0.164 HD
ENDROOT
BRANCH   1   5
ATOM      5  C   UNL     1       1.227  -0.654  -0.013  1.00  0.00     0.093 A 
ATOM      6  C   UNL     1       1.192   2.045   0.002  1.00  0.00     0.113 A 
ATOM      7  S   UNL     1       2.378   0.711  -0.017  1.00  0.00    -0.123 S 
ATOM      8  C   UNL     1      -0.016   1.362   0.009  1.00  0.00     0.028 A 
ATOM      9  C   UNL     1       0.002  -0.004   0.002  1.00  0.00     0.026 A 
BRANCH   6  10
ATOM     10  C   UNL     1       1.433   3.495   0.006  1.00  0.00     0.348 C 
ATOM     11  O   UNL     1       0.494   4.267   0.019  1.00  0.00    -0.245 OA
BRANCH  10  12
ATOM     12  O   UNL     1       2.695   3.969  -0.003  1.00  0.00    -0.465 OA
ATOM     13  C   UNL     1       2.857   5.412   0.003  1.00  0.00     0.282 C 
ENDBRANCH  10  12
ENDBRANCH   6  10
ENDBRANCH   1   5
BRANCH   3  14
ATOM     14  C   UNL     1       3.060  -3.977  -0.047  1.00  0.00     0.143 C 
BRANCH  14  15
ATOM     15  C   UNL     1       3.048  -4.501   1.366  1.00  0.00    -0.021 A 
ATOM     16  C   UNL     1       2.477  -5.729   1.643  1.00  0.00     0.006 A 
ATOM     17  C   UNL     1       3.613  -3.756   2.384  1.00  0.00     0.006 A 
ATOM     18  C   UNL     1       2.465  -6.209   2.939  1.00  0.00     0.000 A 
ATOM     19  C   UNL     1       3.598  -4.234   3.681  1.00  0.00     0.000 A 
ATOM     20  C   UNL     1       3.026  -5.462   3.958  1.00  0.00     0.000 A 
ENDBRANCH  14  15
BRANCH  14  21
ATOM     21  C   UNL     1       4.414  -4.223  -0.662  1.00  0.00    -0.019 A 
ATOM     22  C   UNL     1       4.598  -5.297  -1.506  1.00  0.00     0.034 A 
ATOM     23  C   UNL     1       5.468  -3.368  -0.371  1.00  0.00     0.008 A 
ATOM     24  C   UNL     1       5.844  -5.519  -2.075  1.00  0.00     0.066 A 
ATOM     25  C   UNL     1       6.703  -3.574  -0.918  1.00  0.00     0.031 A 
ATOM     26  C   UNL     1       6.912  -4.654  -1.780  1.00  0.00     0.089 A 
ATOM     27  N   UNL     1       6.352  -6.470  -2.937  1.00  0.00    -0.334 N 
ATOM     28  N   UNL     1       7.992  -5.112  -2.462  1.00  0.00    -0.224 NA
ATOM     29  C   UNL     1       7.665  -6.173  -3.139  1.00  0.00     0.213 A 
ATOM     30  H   UNL     1       5.834  -7.258  -3.351  1.00  0.00     0.168 HD
BRANCH  29  31
ATOM     31  C   UNL     1       8.602  -6.960  -4.018  1.00  0.00     0.449 C 
ATOM     32  F   UNL     1       9.923  -6.596  -3.735  1.00  0.00    -0.163 F 
ATOM     33  F   UNL     1       8.433  -8.328  -3.774  1.00  0.00    -0.163 F 
ATOM     34  F   UNL     1       8.321  -6.688  -5.361  1.00  0.00    -0.163 F 
ENDBRANCH  29  31
ENDBRANCH  14  21
ENDBRANCH   3  14
TORSDOF 7
