REMARK SMILES NS(=O)(=O)c1ccc2c(c1)[C@H]1C=CC[C@@H]1[C@@H](c1c(O)ccc3ccccc13)N2
REMARK SMILES IDX 16 1 15 2 14 3 13 4 12 5 11 6 9 7 10 8 5 9 6 10 7 11 8 12
REMARK SMILES IDX 28 13 17 15 24 16 23 17 25 18 22 19 26 20 27 21 21 22 20 23
REMARK SMILES IDX 18 24 19 25 2 27 3 28 4 29 1 30
REMARK H PARENT 28 14 19 26 1 31 1 32
REMARK Flexibility Score: inf
ROOT
ATOM      1  C   UNL     1      -2.210   4.681  -6.127  1.00  0.00     0.118 C 
ATOM      2  C   UNL     1      -3.316   3.709  -5.755  1.00  0.00     0.031 C 
ATOM      3  C   UNL     1      -3.947   2.897  -6.893  1.00  0.00     0.034 C 
ATOM      4  C   UNL     1      -4.373   1.622  -6.162  1.00  0.00    -0.030 C 
ATOM      5  C   UNL     1      -3.610   1.436  -5.091  1.00  0.00    -0.023 C 
ATOM      6  C   UNL     1      -2.604   2.527  -5.030  1.00  0.00     0.049 C 
ATOM      7  C   UNL     1      -2.079   3.035  -3.744  1.00  0.00    -0.016 A 
ATOM      8  C   UNL     1      -2.036   2.261  -2.605  1.00  0.00     0.028 A 
ATOM      9  C   UNL     1      -1.507   2.771  -1.433  1.00  0.00     0.082 A 
ATOM     10  C   UNL     1      -1.023   4.066  -1.401  1.00  0.00     0.024 A 
ATOM     11  C   UNL     1      -1.062   4.850  -2.536  1.00  0.00     0.027 A 
ATOM     12  C   UNL     1      -1.598   4.349  -3.716  1.00  0.00     0.038 A 
ATOM     13  N   UNL     1      -1.664   5.176  -4.844  1.00  0.00    -0.378 N 
ATOM     14  H   UNL     1      -1.327   6.147  -4.779  1.00  0.00     0.161 HD
ENDROOT
BRANCH   1  15
ATOM     15  C   UNL     1      -2.772   5.826  -6.930  1.00  0.00     0.024 A 
ATOM     16  C   UNL     1      -1.957   6.185 -11.012  1.00  0.00     0.001 A 
ATOM     17  C   UNL     1      -2.743   7.121 -10.413  1.00  0.00     0.009 A 
ATOM     18  C   UNL     1      -1.429   5.120 -10.285  1.00  0.00     0.001 A 
ATOM     19  C   UNL     1      -3.027   7.016  -9.040  1.00  0.00    -0.018 A 
ATOM     20  C   UNL     1      -1.682   4.985  -8.955  1.00  0.00     0.009 A 
ATOM     21  C   UNL     1      -2.489   5.932  -8.301  1.00  0.00    -0.009 A 
ATOM     22  C   UNL     1      -3.833   7.964  -8.388  1.00  0.00     0.012 A 
ATOM     23  C   UNL     1      -4.088   7.833  -7.059  1.00  0.00     0.047 A 
ATOM     24  C   UNL     1      -3.564   6.763  -6.329  1.00  0.00     0.121 A 
BRANCH  24  25
ATOM     25  O   UNL     1      -3.841   6.656  -5.003  1.00  0.00    -0.508 OA
ATOM     26  H   UNL     1      -4.829   6.644  -4.946  1.00  0.00     0.293 HD
ENDBRANCH  24  25
ENDBRANCH   1  15
BRANCH   9  27
ATOM     27  S   UNL     1      -1.456   1.774   0.019  1.00  0.00     0.238 S 
ATOM     28  O   UNL     1      -2.472   0.792  -0.128  1.00  0.00    -0.207 OA
ATOM     29  O   UNL     1      -1.413   2.667   1.123  1.00  0.00    -0.207 OA
BRANCH  27  30
ATOM     30  N   UNL     1      -0.011   0.966   0.007  1.00  0.00    -0.225 NA
ATOM     31  H   UNL     1       0.003  -0.064   0.006  1.00  0.00     0.137 HD
ATOM     32  H   UNL     1       0.874   1.493   0.002  1.00  0.00     0.137 HD
ENDBRANCH  27  30
ENDBRANCH   9  27
TORSDOF 4
