REMARK SMILES O=C(CCNc1c2ccccc2[nH+]c2ccccc12)NCCNc1c2ccccc2[nH+]c2ccccc12
REMARK SMILES IDX 2 1 1 2 20 3 3 5 4 6 5 7 6 9 9 10 8 11 10 12 7 13 11 14
REMARK SMILES IDX 12 15 13 16 19 17 14 18 18 20 15 21 17 22 16 23 21 24 22 25
REMARK SMILES IDX 23 26 24 28 37 29 25 30 32 31 36 32 30 33 26 34 31 35 33 36
REMARK SMILES IDX 35 37 29 38 27 39 34 41 28 42
REMARK H PARENT 20 4 5 8 13 19 23 27 31 40
REMARK Flexibility Score: inf
ROOT
ATOM      1  C   UNL     1       4.046   1.743   0.929  1.00  0.00     0.221 C 
ATOM      2  O   UNL     1       4.447   2.143  -0.144  1.00  0.00    -0.275 OA
ATOM      3  N   UNL     1       4.925   1.410   1.895  1.00  0.00    -0.354 N 
ATOM      4  H   UNL     1       4.585   1.071   2.806  1.00  0.00     0.163 HD
ENDROOT
BRANCH   1   5
ATOM      5  C   UNL     1       2.566   1.617   1.181  1.00  0.00     0.121 C 
BRANCH   5   6
ATOM      6  C   UNL     1       1.797   2.055  -0.068  1.00  0.00     0.123 C 
BRANCH   6   7
ATOM      7  N   UNL     1       0.354   1.933   0.178  1.00  0.00    -0.383 N 
ATOM      8  H   UNL     1      -0.061   1.531   1.031  1.00  0.00     0.160 HD
BRANCH   7   9
ATOM      9  C   UNL     1      -0.372   2.428  -0.884  1.00  0.00     0.062 A 
ATOM     10  C   UNL     1      -0.495  -0.454  -3.176  1.00  0.00     0.001 A 
ATOM     11  C   UNL     1      -0.206   0.297  -2.079  1.00  0.00     0.017 A 
ATOM     12  C   UNL     1      -1.233   0.079  -4.233  1.00  0.00     0.007 A 
ATOM     13  C   UNL     1      -0.656   1.627  -2.008  1.00  0.00     0.070 A 
ATOM     14  C   UNL     1      -1.684   1.360  -4.200  1.00  0.00     0.080 A 
ATOM     15  C   UNL     1      -1.407   2.173  -3.082  1.00  0.00     0.213 A 
ATOM     16  N   UNL     1      -1.843   3.431  -3.037  1.00  0.00    -0.204 N 
ATOM     17  C   UNL     1      -0.859   3.750  -0.880  1.00  0.00     0.070 A 
ATOM     18  C   UNL     1      -1.597   4.224  -1.996  1.00  0.00     0.213 A 
ATOM     19  H   UNL     1      -2.385   3.801  -3.831  1.00  0.00     0.454 HD
ATOM     20  C   UNL     1      -0.608   4.609   0.204  1.00  0.00     0.017 A 
ATOM     21  C   UNL     1      -2.074   5.551  -1.982  1.00  0.00     0.080 A 
ATOM     22  C   UNL     1      -1.085   5.883   0.178  1.00  0.00     0.001 A 
ATOM     23  C   UNL     1      -1.816   6.351  -0.913  1.00  0.00     0.007 A 
ENDBRANCH   7   9
ENDBRANCH   6   7
ENDBRANCH   5   6
ENDBRANCH   1   5
BRANCH   3  24
ATOM     24  C   UNL     1       6.364   1.532   1.650  1.00  0.00     0.137 C 
BRANCH  24  25
ATOM     25  C   UNL     1       7.133   1.094   2.898  1.00  0.00     0.134 C 
BRANCH  25  26
ATOM     26  N   UNL     1       8.576   1.216   2.652  1.00  0.00    -0.382 N 
ATOM     27  H   UNL     1       8.991   1.618   1.799  1.00  0.00     0.160 HD
BRANCH  26  28
ATOM     28  C   UNL     1       9.302   0.722   3.714  1.00  0.00     0.062 A 
ATOM     29  C   UNL     1       9.785  -0.602   3.713  1.00  0.00     0.070 A 
ATOM     30  C   UNL     1       9.590   1.524   4.836  1.00  0.00     0.070 A 
ATOM     31  C   UNL     1      10.529  -1.075   4.826  1.00  0.00     0.213 A 
ATOM     32  C   UNL     1       9.540  -1.458   2.626  1.00  0.00     0.017 A 
ATOM     33  C   UNL     1      10.336   0.976   5.913  1.00  0.00     0.213 A 
ATOM     34  C   UNL     1       9.135   2.852   4.910  1.00  0.00     0.017 A 
ATOM     35  N   UNL     1      10.773  -0.282   5.868  1.00  0.00    -0.204 N 
ATOM     36  C   UNL     1      11.007  -2.401   4.811  1.00  0.00     0.080 A 
ATOM     37  C   UNL     1      10.018  -2.732   2.650  1.00  0.00     0.001 A 
ATOM     38  C   UNL     1      10.611   1.788   7.032  1.00  0.00     0.080 A 
ATOM     39  C   UNL     1       9.422   3.602   6.008  1.00  0.00     0.001 A 
ATOM     40  H   UNL     1      11.315  -0.651   6.662  1.00  0.00     0.454 HD
ATOM     41  C   UNL     1      10.750  -3.200   3.742  1.00  0.00     0.007 A 
ATOM     42  C   UNL     1      10.159   3.069   7.066  1.00  0.00     0.007 A 
ENDBRANCH  26  28
ENDBRANCH  25  26
ENDBRANCH  24  25
ENDBRANCH   3  24
TORSDOF 8
