REMARK SMILES COc1ccc(OC)c(-c2csc(NC(=O)CSc3nc(/C=C/c4cccs4)n[n-]3)n2)c1
REMARK SMILES IDX 17 1 15 2 14 3 16 5 13 6 10 7 31 8 11 9 12 10 9 11 3 12
REMARK SMILES IDX 32 13 4 14 5 15 6 16 2 17 1 18 7 19 8 20 18 21 19 22 20 23
REMARK SMILES IDX 30 24 21 25 29 26 22 27 23 28 24 29 28 30 25 31 27 32 26 33
REMARK H PARENT 14 4
REMARK Flexibility Score: inf
ROOT
ATOM      1  C   UNL     1      -3.990  10.266   6.871  1.00  0.00     0.174 C 
ENDROOT
BRANCH   1   2
ATOM      2  C   UNL     1      -3.770   8.820   6.510  1.00  0.00     0.236 C 
ATOM      3  N   UNL     1      -3.123   8.500   5.372  1.00  0.00    -0.301 N 
ATOM      4  H   UNL     1      -2.779   9.244   4.749  1.00  0.00     0.172 HD
ATOM      5  O   UNL     1      -4.176   7.943   7.244  1.00  0.00    -0.274 OA
BRANCH   3   6
ATOM      6  C   UNL     1      -2.920   7.166   5.039  1.00  0.00     0.189 A 
ATOM      7  C   UNL     1      -2.213   5.340   3.823  1.00  0.00     0.087 A 
ATOM      8  N   UNL     1      -2.318   6.651   3.984  1.00  0.00    -0.220 NA
ATOM      9  C   UNL     1      -2.743   4.505   4.766  1.00  0.00     0.097 A 
ATOM     10  S   UNL     1      -3.406   5.693   5.927  1.00  0.00    -0.105 S 
BRANCH   7  11
ATOM     11  C   UNL     1      -1.532   4.785   2.629  1.00  0.00     0.047 A 
ATOM     12  C   UNL     1      -0.787   2.893   1.346  1.00  0.00     0.119 A 
ATOM     13  C   UNL     1      -1.424   3.406   2.464  1.00  0.00     0.060 A 
ATOM     14  C   UNL     1      -0.252   3.749   0.395  1.00  0.00     0.050 A 
ATOM     15  C   UNL     1      -0.361   5.119   0.551  1.00  0.00     0.051 A 
ATOM     16  C   UNL     1      -0.996   5.643   1.664  1.00  0.00     0.128 A 
BRANCH  12  17
ATOM     17  O   UNL     1      -0.682   1.547   1.184  1.00  0.00    -0.497 OA
ATOM     18  C   UNL     1      -0.013   1.086   0.008  1.00  0.00     0.278 C 
ENDBRANCH  12  17
BRANCH  16  19
ATOM     19  O   UNL     1      -1.097   6.990   1.819  1.00  0.00    -0.496 OA
ATOM     20  C   UNL     1      -0.527   7.806   0.794  1.00  0.00     0.278 C 
ENDBRANCH  16  19
ENDBRANCH   7  11
ENDBRANCH   3   6
ENDBRANCH   1   2
BRANCH   1  21
ATOM     21  S   UNL     1      -4.881  10.367   8.444  1.00  0.00    -0.124 SA
BRANCH  21  22
ATOM     22  C   UNL     1      -4.998  12.116   8.617  1.00  0.00    -0.005 A 
ATOM     23  N   UNL     1      -4.531  13.008   7.772  1.00  0.00    -0.413 NA
ATOM     24  N   UNL     1      -5.590  12.774   9.640  1.00  0.00    -0.347 NA
ATOM     25  C   UNL     1      -4.802  14.244   8.225  1.00  0.00     0.051 A 
ATOM     26  N   UNL     1      -5.448  14.145   9.369  1.00  0.00    -0.263 NA
BRANCH  25  27
ATOM     27  C   UNL     1      -4.438  15.503   7.553  1.00  0.00     0.025 C 
ATOM     28  C   UNL     1      -4.766  16.684   8.111  1.00  0.00     0.021 C 
BRANCH  28  29
ATOM     29  C   UNL     1      -4.404  17.936   7.441  1.00  0.00     0.027 A 
ATOM     30  S   UNL     1      -3.537  18.179   5.900  1.00  0.00    -0.144 S 
ATOM     31  C   UNL     1      -4.649  19.241   7.837  1.00  0.00     0.020 A 
ATOM     32  C   UNL     1      -3.547  19.964   5.880  1.00  0.00     0.065 A 
ATOM     33  C   UNL     1      -4.202  20.262   7.033  1.00  0.00     0.012 A 
ENDBRANCH  28  29
ENDBRANCH  25  27
ENDBRANCH  21  22
ENDBRANCH   1  21
TORSDOF 9
