REMARK SMILES Cc1cccc(-n2c(O)c3ccc(C(=O)NNC(=O)c4cn(C)c5ccccc45)cc3nc2=S)c1C
REMARK SMILES IDX 14 1 15 2 16 3 13 5 7 6 33 7 8 8 32 9 34 10 10 11 31 12
REMARK SMILES IDX 11 13 30 14 12 15 6 16 1 17 2 18 35 19 3 20 36 21 4 22 5 23
REMARK SMILES IDX 9 24 17 26 18 27 19 29 20 30 29 31 21 32 24 33 28 34 22 35
REMARK SMILES IDX 25 36 27 37 23 38 26 39
REMARK H PARENT 16 4 9 25 17 28
REMARK Flexibility Score: inf
ROOT
ATOM      1  C   UNL     1      -2.361  -2.933   0.008  1.00  0.00     0.269 C 
ATOM      2  O   UNL     1      -3.439  -2.373   0.022  1.00  0.00    -0.267 OA
ATOM      3  N   UNL     1      -2.301  -4.279  -0.000  1.00  0.00    -0.263 N 
ATOM      4  H   UNL     1      -1.387  -4.754  -0.012  1.00  0.00     0.191 HD
ENDROOT
BRANCH   1   5
ATOM      5  C   UNL     1      -1.113  -2.136   0.000  1.00  0.00     0.043 A 
ATOM      6  N   UNL     1       2.333   1.481  -0.012  1.00  0.00    -0.255 N 
ATOM      7  C   UNL     1       1.090   2.051   0.003  1.00  0.00     0.207 A 
ATOM      8  C   UNL     1       2.472   0.135  -0.021  1.00  0.00     0.207 A 
ATOM      9  N   UNL     1      -0.016   1.350   0.009  1.00  0.00    -0.219 NA
ATOM     10  S   UNL     1       0.972   3.809   0.013  1.00  0.00    -0.038 S 
ATOM     11  C   UNL     1       1.245  -0.677  -0.013  1.00  0.00     0.061 A 
ATOM     12  C   UNL     1       0.002  -0.004   0.002  1.00  0.00     0.080 A 
ATOM     13  C   UNL     1       1.289  -2.071  -0.022  1.00  0.00     0.017 A 
ATOM     14  C   UNL     1      -1.180  -0.749   0.009  1.00  0.00     0.043 A 
ATOM     15  C   UNL     1       0.127  -2.788  -0.015  1.00  0.00     0.015 A 
BRANCH   6  16
ATOM     16  C   UNL     1       3.472   2.296  -0.019  1.00  0.00     0.055 A 
ATOM     17  C   UNL     1       5.798   3.933   2.470  1.00  0.00     0.044 C 
ATOM     18  C   UNL     1       5.171   3.500   1.170  1.00  0.00    -0.046 A 
ATOM     19  C   UNL     1       4.046   2.700   1.180  1.00  0.00    -0.024 A 
ATOM     20  C   UNL     1       5.721   3.908  -0.032  1.00  0.00     0.004 A 
ATOM     21  C   UNL     1       3.444   2.261   2.490  1.00  0.00     0.047 C 
ATOM     22  C   UNL     1       5.149   3.513  -1.227  1.00  0.00     0.002 A 
ATOM     23  C   UNL     1       4.026   2.708  -1.224  1.00  0.00     0.027 A 
ENDBRANCH   6  16
BRANCH   8  24
ATOM     24  O   UNL     1       3.572  -0.386  -0.035  1.00  0.00    -0.494 OA
ATOM     25  H   UNL     1       4.031  -0.009   0.758  1.00  0.00     0.295 HD
ENDBRANCH   8  24
ENDBRANCH   1   5
BRANCH   3  26
ATOM     26  N   UNL     1      -3.482  -5.033   0.007  1.00  0.00    -0.263 N 
ATOM     27  C   UNL     1      -3.423  -6.379  -0.001  1.00  0.00     0.271 C 
ATOM     28  H   UNL     1      -4.396  -4.558   0.018  1.00  0.00     0.191 HD
ATOM     29  O   UNL     1      -2.343  -6.940  -0.015  1.00  0.00    -0.267 OA
BRANCH  27  30
ATOM     30  C   UNL     1      -4.661  -7.170   0.006  1.00  0.00     0.067 A 
ATOM     31  C   UNL     1      -4.770  -8.640  -0.007  1.00  0.00     0.012 A 
ATOM     32  C   UNL     1      -5.937  -6.688   0.021  1.00  0.00     0.100 A 
ATOM     33  C   UNL     1      -6.145  -8.924   0.010  1.00  0.00     0.049 A 
ATOM     34  C   UNL     1      -3.842  -9.678  -0.016  1.00  0.00     0.011 A 
ATOM     35  N   UNL     1      -6.816  -7.718   0.023  1.00  0.00    -0.350 N 
ATOM     36  C   UNL     1      -6.568 -10.249   0.006  1.00  0.00     0.027 A 
ATOM     37  C   UNL     1      -4.281 -10.985  -0.020  1.00  0.00     0.001 A 
ATOM     38  C   UNL     1      -8.274  -7.573   0.038  1.00  0.00     0.149 C 
ATOM     39  C   UNL     1      -5.639 -11.267  -0.009  1.00  0.00     0.002 A 
ENDBRANCH  27  30
ENDBRANCH   3  26
TORSDOF 5
