REMARK SMILES COc1ccc(-n2nnnc2C2([NH2+]CCc3c(C)[nH]c4c(Cl)ccc(Cl)c34)CCCCC2)cc1
REMARK SMILES IDX 12 1 28 2 29 3 30 4 31 5 32 6 13 7 14 10 15 11 16 12 18 13
REMARK SMILES IDX 17 14 19 15 20 16 27 18 21 19 25 20 23 21 22 22 24 23 26 24
REMARK SMILES IDX 11 25 7 26 10 27 8 28 9 29 6 30 33 31 5 32 34 33 4 34 3 35
REMARK SMILES IDX 2 36 1 37
REMARK H PARENT 13 8 13 9 19 17
REMARK Flexibility Score: inf
ROOT
ATOM      1  C   UNL     1      -0.575   1.811  -4.484  1.00  0.00     0.158 C 
ATOM      2  C   UNL     1      -1.886   1.310  -5.095  1.00  0.00     0.077 C 
ATOM      3  C   UNL     1      -1.667  -0.074  -5.708  1.00  0.00     0.007 C 
ATOM      4  C   UNL     1      -0.598   0.015  -6.799  1.00  0.00     0.001 C 
ATOM      5  C   UNL     1       0.713   0.515  -6.189  1.00  0.00     0.007 C 
ATOM      6  C   UNL     1       0.494   1.899  -5.575  1.00  0.00     0.077 C 
ENDROOT
BRANCH   1   7
ATOM      7  N   UNL     1      -0.124   0.871  -3.440  1.00  0.00    -0.335 N 
ATOM      8  H   UNL     1       0.759   1.212  -3.034  1.00  0.00     0.347 HD
ATOM      9  H   UNL     1       0.033  -0.055  -3.861  1.00  0.00     0.347 HD
BRANCH   7  10
ATOM     10  C   UNL     1      -1.141   0.761  -2.377  1.00  0.00     0.266 C 
BRANCH  10  11
ATOM     11  C   UNL     1      -0.604  -0.138  -1.261  1.00  0.00     0.099 C 
BRANCH  11  12
ATOM     12  C   UNL     1      -1.617  -0.218  -0.149  1.00  0.00    -0.013 A 
ATOM     13  C   UNL     1      -2.788  -2.318  -0.932  1.00  0.00     0.064 C 
ATOM     14  C   UNL     1      -2.565  -1.157   0.002  1.00  0.00     0.016 A 
ATOM     15  N   UNL     1      -3.298  -0.902   1.129  1.00  0.00    -0.357 N 
ATOM     16  C   UNL     1      -2.828   0.235   1.746  1.00  0.00     0.066 A 
ATOM     17  H   UNL     1      -4.084  -1.476   1.465  1.00  0.00     0.166 HD
ATOM     18  C   UNL     1      -1.752   0.711   0.976  1.00  0.00     0.023 A 
ATOM     19  C   UNL     1      -3.200   0.925   2.897  1.00  0.00     0.065 A 
ATOM     20  C   UNL     1      -1.075   1.870   1.364  1.00  0.00     0.050 A 
ATOM     21  C   UNL     1      -2.516   2.064   3.264  1.00  0.00     0.024 A 
ATOM     22  Cl  UNL     1      -4.521   0.352   3.866  1.00  0.00    -0.082 Cl
ATOM     23  C   UNL     1      -1.458   2.532   2.498  1.00  0.00     0.023 A 
ATOM     24  Cl  UNL     1       0.250   2.465   0.414  1.00  0.00    -0.084 Cl
ENDBRANCH  11  12
ENDBRANCH  10  11
ENDBRANCH   7  10
ENDBRANCH   1   7
BRANCH   1  25
ATOM     25  C   UNL     1      -0.791   3.174  -3.880  1.00  0.00     0.217 A 
ATOM     26  N   UNL     1       0.169   4.013  -3.434  1.00  0.00    -0.191 N 
ATOM     27  N   UNL     1      -1.942   3.767  -3.696  1.00  0.00    -0.107 NA
ATOM     28  N   UNL     1      -0.520   5.147  -2.967  1.00  0.00    -0.040 NA
ATOM     29  N   UNL     1      -1.775   4.921  -3.156  1.00  0.00    -0.023 NA
BRANCH  26  30
ATOM     30  C   UNL     1       1.556   3.799  -3.436  1.00  0.00     0.069 A 
ATOM     31  C   UNL     1       2.410   4.791  -3.897  1.00  0.00     0.032 A 
ATOM     32  C   UNL     1       2.073   2.598  -2.971  1.00  0.00     0.032 A 
ATOM     33  C   UNL     1       3.775   4.580  -3.898  1.00  0.00     0.048 A 
ATOM     34  C   UNL     1       3.438   2.386  -2.979  1.00  0.00     0.048 A 
ATOM     35  C   UNL     1       4.292   3.377  -3.439  1.00  0.00     0.119 A 
BRANCH  35  36
ATOM     36  O   UNL     1       5.635   3.170  -3.441  1.00  0.00    -0.497 OA
ATOM     37  C   UNL     1       6.092   1.871  -3.059  1.00  0.00     0.278 C 
ENDBRANCH  35  36
ENDBRANCH  26  30
ENDBRANCH   1  25
TORSDOF 7
