REMARK SMILES Nn1c(NN=C(Cc2ccccc2)Cc2ccccc2)nnc1SCC(=O)N1CCc2ccccc2C1
REMARK SMILES IDX 3 1 21 2 22 3 23 4 2 5 4 6 5 8 6 9 7 10 8 11 11 12 12 13
REMARK SMILES IDX 10 14 13 15 9 16 14 17 15 18 20 19 16 20 19 21 17 22 18 23
REMARK SMILES IDX 1 24 24 27 25 28 26 29 27 30 28 31 37 32 29 33 36 34 30 35
REMARK SMILES IDX 31 36 35 37 32 38 34 39 33 40
REMARK H PARENT 4 7 1 25 1 26
REMARK Flexibility Score: inf
ROOT
ATOM      1  C   UNL     1      -0.397  10.257  -2.594  1.00  0.00     0.264 A 
ATOM      2  N   UNL     1      -1.152   9.838  -1.608  1.00  0.00    -0.107 NA
ATOM      3  N   UNL     1      -1.073   8.440  -1.566  1.00  0.00    -0.119 NA
ATOM      4  C   UNL     1      -0.265   8.051  -2.523  1.00  0.00     0.211 A 
ATOM      5  N   UNL     1       0.172   9.163  -3.185  1.00  0.00    -0.202 N 
ENDROOT
BRANCH   1   6
ATOM      6  N   UNL     1      -0.207  11.579  -2.972  1.00  0.00    -0.244 N 
ATOM      7  H   UNL     1       0.410  11.805  -3.765  1.00  0.00     0.193 HD
BRANCH   6   8
ATOM      8  N   UNL     1      -0.856  12.607  -2.274  1.00  0.00    -0.181 NA
ATOM      9  C   UNL     1      -0.681  13.826  -2.623  1.00  0.00     0.047 C 
BRANCH   9  10
ATOM     10  C   UNL     1       0.223  14.156  -3.783  1.00  0.00     0.089 C 
BRANCH  10  11
ATOM     11  C   UNL     1      -0.582  14.171  -5.057  1.00  0.00    -0.042 A 
ATOM     12  C   UNL     1      -2.058  14.199  -7.395  1.00  0.00     0.000 A 
ATOM     13  C   UNL     1      -1.463  13.027  -6.967  1.00  0.00     0.000 A 
ATOM     14  C   UNL     1      -1.914  15.358  -6.655  1.00  0.00     0.000 A 
ATOM     15  C   UNL     1      -0.721  13.014  -5.801  1.00  0.00     0.004 A 
ATOM     16  C   UNL     1      -1.176  15.344  -5.486  1.00  0.00     0.004 A 
ENDBRANCH  10  11
ENDBRANCH   9  10
BRANCH   9  17
ATOM     17  C   UNL     1      -1.378  14.932  -1.872  1.00  0.00     0.089 C 
BRANCH  17  18
ATOM     18  C   UNL     1      -0.353  15.792  -1.179  1.00  0.00    -0.042 A 
ATOM     19  C   UNL     1       0.184  16.887  -1.830  1.00  0.00     0.004 A 
ATOM     20  C   UNL     1       0.045  15.490   0.110  1.00  0.00     0.004 A 
ATOM     21  C   UNL     1       1.123  17.677  -1.194  1.00  0.00     0.000 A 
ATOM     22  C   UNL     1       0.988  16.277   0.744  1.00  0.00     0.000 A 
ATOM     23  C   UNL     1       1.526  17.372   0.093  1.00  0.00     0.000 A 
ENDBRANCH  17  18
ENDBRANCH   9  17
ENDBRANCH   6   8
ENDBRANCH   1   6
BRANCH   5  24
ATOM     24  N   UNL     1       1.026   9.179  -4.251  1.00  0.00    -0.334 N 
ATOM     25  H   UNL     1       1.251  10.111  -4.629  1.00  0.00     0.178 HD
ATOM     26  H   UNL     1       1.429   8.325  -4.661  1.00  0.00     0.178 HD
ENDBRANCH   5  24
BRANCH   4  27
ATOM     27  S   UNL     1       0.176   6.385  -2.893  1.00  0.00    -0.074 SA
BRANCH  27  28
ATOM     28  C   UNL     1      -0.729   5.408  -1.662  1.00  0.00     0.178 C 
BRANCH  28  29
ATOM     29  C   UNL     1      -0.436   3.944  -1.869  1.00  0.00     0.233 C 
ATOM     30  O   UNL     1       0.309   3.595  -2.760  1.00  0.00    -0.274 OA
BRANCH  29  31
ATOM     31  N   UNL     1      -1.003   3.023  -1.064  1.00  0.00    -0.337 N 
ATOM     32  C   UNL     1      -1.908   3.413   0.022  1.00  0.00     0.155 C 
ATOM     33  C   UNL     1      -0.739   1.585  -1.240  1.00  0.00     0.124 C 
ATOM     34  C   UNL     1      -1.568   2.636   1.270  1.00  0.00    -0.025 A 
ATOM     35  C   UNL     1      -0.013   1.086   0.008  1.00  0.00     0.057 C 
ATOM     36  C   UNL     1      -0.704   1.565   1.257  1.00  0.00    -0.041 A 
ATOM     37  C   UNL     1      -2.161   3.033   2.461  1.00  0.00     0.006 A 
ATOM     38  C   UNL     1      -0.443   0.883   2.440  1.00  0.00     0.004 A 
ATOM     39  C   UNL     1      -1.898   2.357   3.632  1.00  0.00     0.000 A 
ATOM     40  C   UNL     1      -1.036   1.276   3.621  1.00  0.00     0.000 A 
ENDBRANCH  29  31
ENDBRANCH  28  29
ENDBRANCH  27  28
ENDBRANCH   4  27
TORSDOF 11
