REMARK SMILES C=C(C)[C@@H]1CC[C@]2(C(=O)NCCO)CC[C@@]3(C)[C@@H](CC[C@H]4[C@@]5(C)CCC(=O)C(C)(C)[C@@H]5CC[C@]43C)[C@@H]12
REMARK SMILES IDX 8 1 9 2 10 3 7 5 4 6 36 7 5 8 18 9 6 10 14 11 16 12 19 13
REMARK SMILES IDX 15 14 34 15 17 16 20 17 21 18 33 19 35 20 22 21 32 22 31 23
REMARK SMILES IDX 24 24 23 25 28 26 25 27 26 28 29 29 30 30 27 31 2 32 3 33
REMARK SMILES IDX 1 34 11 35 12 36 13 37
REMARK H PARENT 10 4 13 38
REMARK Flexibility Score: inf
ROOT
ATOM      1  C   UNL     1       2.124   1.855   0.864  1.00  0.00     0.226 C 
ATOM      2  O   UNL     1       2.834   2.822   1.040  1.00  0.00    -0.274 OA
ATOM      3  N   UNL     1       2.619   0.614   1.044  1.00  0.00    -0.353 N 
ATOM      4  H   UNL     1       2.015  -0.207   0.895  1.00  0.00     0.163 HD
ENDROOT
BRANCH   1   5
ATOM      5  C   UNL     1       0.686   2.041   0.439  1.00  0.00     0.053 C 
ATOM      6  C   UNL     1       1.265   4.008  -0.803  1.00  0.00     0.019 C 
ATOM      7  C   UNL     1       0.300   3.524   0.285  1.00  0.00     0.015 C 
ATOM      8  C   UNL     1       1.387   2.781  -1.748  1.00  0.00     0.009 C 
ATOM      9  C   UNL     1       0.174   4.275   1.551  1.00  0.00     0.000 C 
ATOM     10  C   UNL     1       0.615   1.621  -1.055  1.00  0.00     0.018 C 
ATOM     11  C   UNL     1      -0.263   1.303   1.346  1.00  0.00     0.018 C 
ATOM     12  C   UNL     1      -0.263   3.405   2.725  1.00  0.00    -0.024 C 
ATOM     13  C   UNL     1       1.268   5.223   1.996  1.00  0.00     0.005 C 
ATOM     14  C   UNL     1      -1.119   2.266   2.187  1.00  0.00     0.009 C 
ATOM     15  C   UNL     1      -1.016   4.316   3.717  1.00  0.00    -0.024 C 
ATOM     16  C   UNL     1       0.911   2.818   3.511  1.00  0.00     0.012 C 
ATOM     17  C   UNL     1       0.615   6.178   3.004  1.00  0.00     0.005 C 
ATOM     18  C   UNL     1      -0.131   5.477   4.132  1.00  0.00     0.002 C 
ATOM     19  C   UNL     1      -2.334   4.765   3.103  1.00  0.00     0.008 C 
ATOM     20  C   UNL     1      -1.311   3.417   4.937  1.00  0.00     0.012 C 
ATOM     21  C   UNL     1      -0.867   6.568   4.933  1.00  0.00    -0.025 C 
ATOM     22  C   UNL     1      -3.057   5.729   4.052  1.00  0.00     0.006 C 
ATOM     23  C   UNL     1      -2.165   6.953   4.244  1.00  0.00     0.008 C 
ATOM     24  C   UNL     1       0.037   7.817   4.961  1.00  0.00     0.015 C 
ATOM     25  C   UNL     1      -1.071   6.112   6.374  1.00  0.00     0.012 C 
ATOM     26  C   UNL     1      -2.918   8.097   4.896  1.00  0.00     0.027 C 
ATOM     27  C   UNL     1      -0.589   8.886   5.853  1.00  0.00     0.077 C 
ATOM     28  C   UNL     1      -1.999   9.173   5.418  1.00  0.00     0.138 C 
ATOM     29  C   UNL     1      -3.807   8.758   3.813  1.00  0.00     0.020 C 
ATOM     30  C   UNL     1      -3.853   7.626   6.012  1.00  0.00     0.020 C 
ATOM     31  O   UNL     1      -2.419  10.319   5.493  1.00  0.00    -0.299 OA
BRANCH   6  32
ATOM     32  C   UNL     1       0.667   5.174  -1.547  1.00  0.00    -0.077 C 
ATOM     33  C   UNL     1      -0.638   5.010  -2.281  1.00  0.00     0.039 C 
ATOM     34  C   UNL     1       1.283   6.331  -1.555  1.00  0.00     0.008 C 
ENDBRANCH   6  32
ENDBRANCH   1   5
BRANCH   3  35
ATOM     35  C   UNL     1       4.014   0.434   1.451  1.00  0.00     0.144 C 
BRANCH  35  36
ATOM     36  C   UNL     1       4.318  -1.060   1.583  1.00  0.00     0.177 C 
BRANCH  36  37
ATOM     37  O   UNL     1       4.215  -1.682   0.300  1.00  0.00    -0.395 OA
ATOM     38  H   UNL     1       4.864  -1.268  -0.322  1.00  0.00     0.210 HD
ENDBRANCH  36  37
ENDBRANCH  35  36
ENDBRANCH   3  35
TORSDOF 5
