REMARK SMILES CCC(C)(C)NC(=O)[C@H](c1ccc(C)cc1)N(C(=O)CNC(=O)c1cccs1)c1ccc(C)c(C)c1
REMARK SMILES IDX 17 1 9 2 7 3 6 4 8 6 3 7 4 8 5 9 2 10 1 11 10 12 16 13 11 14
REMARK SMILES IDX 15 15 12 16 13 17 14 18 29 19 36 20 30 21 34 22 31 23 32 24
REMARK SMILES IDX 35 25 33 26 18 27 19 28 20 29 21 30 22 31 23 33 24 34 28 35
REMARK SMILES IDX 25 36 27 37 26 38
REMARK H PARENT 6 5 21 32
REMARK Flexibility Score: inf
ROOT
ATOM      1  N   UNL     1       3.553   0.871  -0.306  1.00  0.00    -0.294 N 
ENDROOT
BRANCH   1   2
ATOM      2  C   UNL     1       4.810   0.267   0.142  1.00  0.00     0.210 C 
BRANCH   2   3
ATOM      3  C   UNL     1       5.156   0.787   1.514  1.00  0.00     0.248 C 
ATOM      4  N   UNL     1       6.278   0.367   2.131  1.00  0.00    -0.349 N 
ATOM      5  H   UNL     1       6.899  -0.309   1.665  1.00  0.00     0.164 HD
ATOM      6  O   UNL     1       4.425   1.584   2.062  1.00  0.00    -0.272 OA
BRANCH   4   7
ATOM      7  C   UNL     1       6.615   0.874   3.464  1.00  0.00     0.034 C 
ATOM      8  C   UNL     1       6.771   2.394   3.407  1.00  0.00     0.034 C 
ATOM      9  C   UNL     1       5.497   0.512   4.444  1.00  0.00     0.034 C 
BRANCH   7  10
ATOM     10  C   UNL     1       7.927   0.243   3.933  1.00  0.00     0.024 C 
ATOM     11  C   UNL     1       8.279   0.771   5.325  1.00  0.00     0.006 C 
ENDBRANCH   7  10
ENDBRANCH   4   7
ENDBRANCH   2   3
BRANCH   2  12
ATOM     12  C   UNL     1       5.911   0.623  -0.823  1.00  0.00    -0.016 A 
ATOM     13  C   UNL     1       6.584  -0.375  -1.503  1.00  0.00     0.007 A 
ATOM     14  C   UNL     1       6.245   1.948  -1.032  1.00  0.00     0.007 A 
ATOM     15  C   UNL     1       7.593  -0.048  -2.389  1.00  0.00     0.004 A 
ATOM     16  C   UNL     1       7.259   2.275  -1.913  1.00  0.00     0.004 A 
ATOM     17  C   UNL     1       7.931   1.277  -2.594  1.00  0.00    -0.051 A 
ATOM     18  C   UNL     1       9.033   1.633  -3.559  1.00  0.00     0.044 C 
ENDBRANCH   2  12
ENDBRANCH   1   2
BRANCH   1  19
ATOM     19  C   UNL     1       3.546   1.737  -1.405  1.00  0.00     0.045 A 
ATOM     20  C   UNL     1       3.291   3.089  -1.224  1.00  0.00     0.030 A 
ATOM     21  C   UNL     1       3.789   1.244  -2.681  1.00  0.00     0.026 A 
ATOM     22  C   UNL     1       3.291   3.943  -2.310  1.00  0.00    -0.046 A 
ATOM     23  C   UNL     1       3.781   2.101  -3.764  1.00  0.00     0.006 A 
ATOM     24  C   UNL     1       3.532   3.449  -3.579  1.00  0.00    -0.048 A 
ATOM     25  C   UNL     1       3.021   5.412  -2.112  1.00  0.00     0.044 C 
ATOM     26  C   UNL     1       3.524   4.382  -4.762  1.00  0.00     0.044 C 
ENDBRANCH   1  19
BRANCH   1  27
ATOM     27  C   UNL     1       2.403   0.592   0.339  1.00  0.00     0.247 C 
ATOM     28  O   UNL     1       2.422  -0.083   1.347  1.00  0.00    -0.272 OA
BRANCH  27  29
ATOM     29  C   UNL     1       1.095   1.119  -0.191  1.00  0.00     0.217 C 
BRANCH  29  30
ATOM     30  N   UNL     1      -0.009   0.573   0.603  1.00  0.00    -0.342 N 
ATOM     31  C   UNL     1      -1.281   0.904   0.306  1.00  0.00     0.261 C 
ATOM     32  H   UNL     1       0.187  -0.064   1.389  1.00  0.00     0.164 HD
ATOM     33  O   UNL     1      -1.513   1.661  -0.619  1.00  0.00    -0.268 OA
BRANCH  31  34
ATOM     34  C   UNL     1      -2.386   0.354   1.097  1.00  0.00     0.092 A 
ATOM     35  S   UNL     1      -2.326  -0.762   2.488  1.00  0.00    -0.139 S 
ATOM     36  C   UNL     1      -3.748   0.569   0.963  1.00  0.00     0.025 A 
ATOM     37  C   UNL     1      -4.027  -0.883   2.797  1.00  0.00     0.065 A 
ATOM     38  C   UNL     1      -4.574  -0.082   1.845  1.00  0.00     0.012 A 
ENDBRANCH  31  34
ENDBRANCH  29  30
ENDBRANCH  27  29
ENDBRANCH   1  27
TORSDOF 10
