REMARK SMILES O=S1(=O)OC(c2ccc(O)c(O)c2)(c2ccc(O)c(O)c2)c2ccccc21
REMARK SMILES IDX 24 1 25 2 26 3 27 4 22 5 23 6 5 7 4 8 2 9 1 10 3 11 6 12
REMARK SMILES IDX 13 13 7 14 11 15 8 16 9 17 12 18 10 20 14 22 21 23 15 24
REMARK SMILES IDX 19 25 16 26 17 27 20 28 18 30
REMARK H PARENT 12 19 10 21 20 29 18 31
REMARK Flexibility Score: inf
ROOT
ATOM      1  C   UNL     1       5.798  -0.985   0.536  1.00  0.00     0.001 A 
ATOM      2  C   UNL     1       6.157  -0.740   1.849  1.00  0.00     0.001 A 
ATOM      3  C   UNL     1       5.715   0.415   2.474  1.00  0.00     0.023 A 
ATOM      4  C   UNL     1       4.928   1.299   1.784  1.00  0.00     0.101 A 
ATOM      5  C   UNL     1       4.549   1.062   0.469  1.00  0.00     0.015 A 
ATOM      6  C   UNL     1       5.000  -0.092  -0.152  1.00  0.00     0.009 A 
ATOM      7  C   UNL     1       3.676   2.185  -0.023  1.00  0.00     0.165 C 
ATOM      8  O   UNL     1       3.820   3.372   0.769  1.00  0.00    -0.245 OA
ATOM      9  S   UNL     1       4.173   2.852   2.178  1.00  0.00     0.298 S 
ATOM     10  O   UNL     1       5.186   3.699   2.705  1.00  0.00    -0.194 OA
ATOM     11  O   UNL     1       2.953   2.582   2.853  1.00  0.00    -0.194 OA
ENDROOT
BRANCH   7  12
ATOM     12  C   UNL     1       2.237   1.740   0.021  1.00  0.00    -0.002 A 
ATOM     13  C   UNL     1       1.228   2.678   0.145  1.00  0.00     0.057 A 
ATOM     14  C   UNL     1       1.928   0.395  -0.063  1.00  0.00     0.011 A 
ATOM     15  C   UNL     1      -0.095   2.270   0.185  1.00  0.00     0.157 A 
ATOM     16  C   UNL     1       0.609  -0.018  -0.024  1.00  0.00     0.050 A 
ATOM     17  C   UNL     1      -0.406   0.916   0.100  1.00  0.00     0.157 A 
BRANCH  15  18
ATOM     18  O   UNL     1      -1.089   3.192   0.300  1.00  0.00    -0.504 OA
ATOM     19  H   UNL     1      -1.598   2.917   1.104  1.00  0.00     0.293 HD
ENDBRANCH  15  18
BRANCH  17  20
ATOM     20  O   UNL     1      -1.704   0.511   0.138  1.00  0.00    -0.504 OA
ATOM     21  H   UNL     1      -1.749  -0.129   0.891  1.00  0.00     0.293 HD
ENDBRANCH  17  20
ENDBRANCH   7  12
BRANCH   7  22
ATOM     22  C   UNL     1       4.046   2.501  -1.449  1.00  0.00    -0.002 A 
ATOM     23  C   UNL     1       4.669   3.697  -1.751  1.00  0.00     0.057 A 
ATOM     24  C   UNL     1       3.756   1.596  -2.453  1.00  0.00     0.011 A 
ATOM     25  C   UNL     1       5.015   3.986  -3.062  1.00  0.00     0.157 A 
ATOM     26  C   UNL     1       4.093   1.881  -3.763  1.00  0.00     0.050 A 
ATOM     27  C   UNL     1       4.723   3.076  -4.072  1.00  0.00     0.157 A 
BRANCH  25  28
ATOM     28  O   UNL     1       5.634   5.160  -3.360  1.00  0.00    -0.504 OA
ATOM     29  H   UNL     1       5.052   5.590  -4.035  1.00  0.00     0.293 HD
ENDBRANCH  25  28
BRANCH  27  30
ATOM     30  O   UNL     1       5.056   3.357  -5.361  1.00  0.00    -0.504 OA
ATOM     31  H   UNL     1       4.205   3.291  -5.863  1.00  0.00     0.293 HD
ENDBRANCH  27  30
ENDBRANCH   7  22
TORSDOF 6
