REMARK SMILES O=C(NNC(=O)[C@@H]1C[C@H]2CCC[C@@H](C1)C2=O)c1ccccc1-n1cccc1
REMARK SMILES IDX 2 1 1 2 3 3 17 5 19 6 18 7 20 8 21 9 22 10 23 11 27 12 24 13
REMARK SMILES IDX 26 14 25 15 4 16 5 17 6 19 7 20 14 21 8 22 13 23 9 24 12 25
REMARK SMILES IDX 15 26 10 27 11 28 16 29
REMARK H PARENT 3 4 4 18
REMARK Flexibility Score: inf
ROOT
ATOM      1  C   UNL     1      -0.019   1.353   0.112  1.00  0.00     0.271 C 
ATOM      2  O   UNL     1      -1.073   1.923  -0.094  1.00  0.00    -0.267 OA
ATOM      3  N   UNL     1      -0.009   0.034   0.391  1.00  0.00    -0.263 N 
ATOM      4  H   UNL     1       0.884  -0.450   0.561  1.00  0.00     0.191 HD
ENDROOT
BRANCH   1   5
ATOM      5  C   UNL     1       1.250   2.103   0.051  1.00  0.00     0.065 A 
ATOM      6  C   UNL     1       3.652   2.135   0.084  1.00  0.00     0.001 A 
ATOM      7  C   UNL     1       2.470   1.429   0.146  1.00  0.00     0.016 A 
ATOM      8  C   UNL     1       3.637   3.513  -0.062  1.00  0.00     0.002 A 
ATOM      9  C   UNL     1       2.438   4.193  -0.152  1.00  0.00     0.027 A 
ATOM     10  C   UNL     1       1.239   3.497  -0.097  1.00  0.00     0.058 A 
BRANCH  10  11
ATOM     11  N   UNL     1       0.025   4.183  -0.188  1.00  0.00    -0.323 N 
ATOM     12  C   UNL     1      -0.976   4.160   0.742  1.00  0.00     0.091 A 
ATOM     13  C   UNL     1      -0.356   4.994  -1.220  1.00  0.00     0.091 A 
ATOM     14  C   UNL     1      -1.980   4.942   0.299  1.00  0.00     0.020 A 
ATOM     15  C   UNL     1      -1.588   5.469  -0.948  1.00  0.00     0.020 A 
ENDBRANCH  10  11
ENDBRANCH   1   5
BRANCH   3  16
ATOM     16  N   UNL     1      -1.214  -0.678   0.449  1.00  0.00    -0.267 N 
ATOM     17  C   UNL     1      -1.205  -1.997   0.727  1.00  0.00     0.241 C 
ATOM     18  H   UNL     1      -2.107  -0.195   0.278  1.00  0.00     0.191 HD
ATOM     19  O   UNL     1      -0.153  -2.567   0.928  1.00  0.00    -0.273 OA
BRANCH  17  20
ATOM     20  C   UNL     1      -2.512  -2.770   0.790  1.00  0.00     0.081 C 
ATOM     21  C   UNL     1      -2.185  -4.218   1.120  1.00  0.00     0.025 C 
ATOM     22  C   UNL     1      -3.409  -2.092   1.813  1.00  0.00     0.025 C 
ATOM     23  C   UNL     1      -3.416  -5.043   1.484  1.00  0.00     0.057 C 
ATOM     24  C   UNL     1      -4.638  -2.920   2.177  1.00  0.00     0.057 C 
ATOM     25  C   UNL     1      -4.349  -5.197   0.287  1.00  0.00     0.011 C 
ATOM     26  C   UNL     1      -4.170  -4.308   2.578  1.00  0.00     0.139 C 
ATOM     27  C   UNL     1      -5.578  -3.064   0.983  1.00  0.00     0.011 C 
ATOM     28  C   UNL     1      -5.002  -3.898  -0.144  1.00  0.00     0.001 C 
ATOM     29  O   UNL     1      -4.378  -4.783   3.665  1.00  0.00    -0.299 OA
ENDBRANCH  17  20
ENDBRANCH   3  16
TORSDOF 4
