REMARK SMILES O=C(NC(=S)[N-]c1ccc(S(=O)(=O)NCc2ccccc2)cc1)C(c1ccccc1)c1ccccc1
REMARK SMILES IDX 10 1 9 2 8 3 7 4 23 5 22 6 11 7 12 8 13 9 14 10 15 12 16 13
REMARK SMILES IDX 19 14 20 15 18 16 21 17 17 18 6 19 4 20 5 21 3 22 2 23 1 25
REMARK SMILES IDX 24 26 25 27 30 28 26 29 29 30 27 31 28 32 31 33 36 34 32 35
REMARK SMILES IDX 35 36 33 37 34 38
REMARK H PARENT 14 11 3 24
REMARK Flexibility Score: inf
ROOT
ATOM      1  C   UNL     1      -0.936   1.161  -0.289  1.00  0.00     0.082 A 
ATOM      2  C   UNL     1      -0.020   0.656  -1.194  1.00  0.00     0.022 A 
ATOM      3  C   UNL     1       0.375  -0.664  -1.115  1.00  0.00     0.005 A 
ATOM      4  C   UNL     1      -0.148  -1.487  -0.126  1.00  0.00    -0.041 A 
ATOM      5  C   UNL     1      -1.067  -0.977   0.782  1.00  0.00     0.005 A 
ATOM      6  C   UNL     1      -1.459   0.345   0.698  1.00  0.00     0.022 A 
ENDROOT
BRANCH   1   7
ATOM      7  S   UNL     1      -1.437   2.847  -0.392  1.00  0.00     0.240 S 
ATOM      8  O   UNL     1      -1.889   3.216   0.903  1.00  0.00    -0.207 OA
ATOM      9  O   UNL     1      -0.393   3.540  -1.062  1.00  0.00    -0.207 OA
BRANCH   7  10
ATOM     10  N   UNL     1      -2.759   2.904  -1.388  1.00  0.00    -0.207 NA
ATOM     11  H   UNL     1      -2.704   3.401  -2.289  1.00  0.00     0.141 HD
BRANCH  10  12
ATOM     12  C   UNL     1      -4.006   2.249  -0.989  1.00  0.00     0.134 C 
BRANCH  12  13
ATOM     13  C   UNL     1      -5.134   2.744  -1.857  1.00  0.00    -0.033 A 
ATOM     14  C   UNL     1      -7.204   3.651  -3.449  1.00  0.00     0.000 A 
ATOM     15  C   UNL     1      -6.900   4.307  -2.271  1.00  0.00     0.000 A 
ATOM     16  C   UNL     1      -6.473   2.542  -3.831  1.00  0.00     0.000 A 
ATOM     17  C   UNL     1      -5.869   3.850  -1.472  1.00  0.00     0.005 A 
ATOM     18  C   UNL     1      -5.438   2.088  -3.035  1.00  0.00     0.005 A 
ENDBRANCH  12  13
ENDBRANCH  10  12
ENDBRANCH   7  10
ENDBRANCH   1   7
BRANCH   4  19
ATOM     19  N   UNL     1       0.250  -2.825  -0.044  1.00  0.00    -0.427 NA
BRANCH  19  20
ATOM     20  C   UNL     1       1.544  -3.156  -0.226  1.00  0.00     0.009 C 
ATOM     21  S   UNL     1       2.723  -1.929  -0.414  1.00  0.00    -0.090 S 
BRANCH  20  22
ATOM     22  N   UNL     1       1.909  -4.453  -0.261  1.00  0.00    -0.418 N 
ATOM     23  C   UNL     1       3.203  -4.784  -0.444  1.00  0.00     0.157 C 
ATOM     24  H   UNL     1       1.200  -5.191  -0.148  1.00  0.00     0.029 HD
ATOM     25  O   UNL     1       4.038  -3.914  -0.577  1.00  0.00    -0.298 OA
BRANCH  23  26
ATOM     26  C   UNL     1       3.612  -6.234  -0.483  1.00  0.00     0.117 C 
BRANCH  26  27
ATOM     27  C   UNL     1       2.896  -6.927  -1.613  1.00  0.00    -0.033 A 
ATOM     28  C   UNL     1       2.218  -8.109  -1.380  1.00  0.00     0.005 A 
ATOM     29  C   UNL     1       2.912  -6.378  -2.882  1.00  0.00     0.005 A 
ATOM     30  C   UNL     1       1.560  -8.745  -2.417  1.00  0.00     0.000 A 
ATOM     31  C   UNL     1       2.259  -7.017  -3.920  1.00  0.00     0.000 A 
ATOM     32  C   UNL     1       1.582  -8.199  -3.686  1.00  0.00     0.000 A 
ENDBRANCH  26  27
BRANCH  26  33
ATOM     33  C   UNL     1       5.100  -6.330  -0.697  1.00  0.00    -0.033 A 
ATOM     34  C   UNL     1       5.876  -7.079   0.168  1.00  0.00     0.005 A 
ATOM     35  C   UNL     1       5.690  -5.674  -1.762  1.00  0.00     0.005 A 
ATOM     36  C   UNL     1       7.241  -7.168  -0.029  1.00  0.00     0.000 A 
ATOM     37  C   UNL     1       7.056  -5.759  -1.955  1.00  0.00     0.000 A 
ATOM     38  C   UNL     1       7.831  -6.508  -1.090  1.00  0.00     0.000 A 
ENDBRANCH  26  33
ENDBRANCH  23  26
ENDBRANCH  20  22
ENDBRANCH  19  20
ENDBRANCH   4  19
TORSDOF 10
