REMARK SMILES CCOc1ccc(-n2c(Sc3c(N)c4c5c(sc4[nH]c3=O)CCC5)nnc2-c2nn(C)c(C)c2Br)cc1
REMARK SMILES IDX 8 1 27 2 26 3 25 4 9 5 7 6 4 7 37 8 5 9 36 10 6 11 3 12 2 13
REMARK SMILES IDX 1 14 10 15 11 16 20 17 12 18 19 19 21 20 14 21 18 22 15 24
REMARK SMILES IDX 17 25 24 26 16 27 23 28 22 29 13 30 28 33 29 34 34 35 30 36
REMARK SMILES IDX 32 37 35 38 31 39 33 40
REMARK H PARENT 19 23 13 31 13 32
REMARK Flexibility Score: inf
ROOT
ATOM      1  N   UNL     1       4.747   0.500   4.279  1.00  0.00    -0.268 N 
ATOM      2  C   UNL     1       5.145   0.321   2.972  1.00  0.00     0.191 A 
ATOM      3  N   UNL     1       4.128   0.654   2.211  1.00  0.00    -0.127 NA
ATOM      4  N   UNL     1       3.134   1.018   2.939  1.00  0.00    -0.122 NA
ATOM      5  C   UNL     1       3.456   0.949   4.212  1.00  0.00     0.201 A 
ENDROOT
BRANCH   1   6
ATOM      6  C   UNL     1       5.506   0.269   5.436  1.00  0.00     0.050 A 
ATOM      7  C   UNL     1       7.004  -0.187   7.720  1.00  0.00     0.119 A 
ATOM      8  C   UNL     1       7.381   0.808   6.830  1.00  0.00     0.048 A 
ATOM      9  C   UNL     1       5.877  -0.955   7.465  1.00  0.00     0.048 A 
ATOM     10  C   UNL     1       6.638   1.032   5.688  1.00  0.00     0.030 A 
ATOM     11  C   UNL     1       5.130  -0.728   6.326  1.00  0.00     0.030 A 
BRANCH   7  12
ATOM     12  O   UNL     1       7.740  -0.411   8.841  1.00  0.00    -0.494 OA
BRANCH  12  13
ATOM     13  C   UNL     1       8.888   0.416   9.040  1.00  0.00     0.226 C 
ATOM     14  C   UNL     1       9.583   0.020  10.344  1.00  0.00     0.049 C 
ENDBRANCH  12  13
ENDBRANCH   7  12
ENDBRANCH   1   6
BRANCH   5  15
ATOM     15  S   UNL     1       2.417   1.352   5.577  1.00  0.00    -0.041 SA
BRANCH  15  16
ATOM     16  C   UNL     1       0.940   1.785   4.719  1.00  0.00     0.104 A 
ATOM     17  C   UNL     1       0.920   2.919   3.897  1.00  0.00     0.265 A 
ATOM     18  C   UNL     1      -0.192   1.004   4.863  1.00  0.00     0.062 A 
ATOM     19  N   UNL     1      -0.200   3.264   3.234  1.00  0.00    -0.312 N 
ATOM     20  O   UNL     1       1.928   3.599   3.779  1.00  0.00    -0.268 OA
ATOM     21  C   UNL     1      -1.420   1.386   4.135  1.00  0.00     0.037 A 
ATOM     22  C   UNL     1      -1.338   2.528   3.343  1.00  0.00     0.105 A 
ATOM     23  H   UNL     1      -0.195   4.101   2.633  1.00  0.00     0.171 HD
ATOM     24  C   UNL     1      -2.721   0.698   4.151  1.00  0.00    -0.022 A 
ATOM     25  S   UNL     1      -2.964   2.663   2.645  1.00  0.00    -0.122 S 
ATOM     26  C   UNL     1      -3.277  -0.547   4.848  1.00  0.00     0.038 C 
ATOM     27  C   UNL     1      -3.700   1.232   3.401  1.00  0.00     0.011 A 
ATOM     28  C   UNL     1      -4.555  -0.921   4.072  1.00  0.00     0.010 C 
ATOM     29  C   UNL     1      -4.980   0.446   3.491  1.00  0.00     0.047 C 
BRANCH  18  30
ATOM     30  N   UNL     1      -0.175  -0.117   5.676  1.00  0.00    -0.397 N 
ATOM     31  H   UNL     1       0.689  -0.370   6.177  1.00  0.00     0.156 HD
ATOM     32  H   UNL     1      -1.021  -0.696   5.780  1.00  0.00     0.156 HD
ENDBRANCH  18  30
ENDBRANCH  15  16
ENDBRANCH   5  15
BRANCH   2  33
ATOM     33  C   UNL     1       6.468  -0.154   2.514  1.00  0.00     0.145 A 
ATOM     34  N   UNL     1       7.484  -0.487   3.285  1.00  0.00    -0.168 NA
ATOM     35  C   UNL     1       6.865  -0.339   1.172  1.00  0.00     0.070 A 
ATOM     36  N   UNL     1       8.545  -0.882   2.461  1.00  0.00    -0.271 N 
ATOM     37  C   UNL     1       8.142  -0.779   1.176  1.00  0.00     0.050 A 
ATOM     38  Br  UNL     1       5.800  -0.023  -0.358  1.00  0.00    -0.046 Br
ATOM     39  C   UNL     1       9.864  -1.330   2.915  1.00  0.00     0.174 C 
ATOM     40  C   UNL     1       8.970  -1.104  -0.041  1.00  0.00     0.067 C 
ENDBRANCH   2  33
TORSDOF 7
