REMARK SMILES CC[NH+](CC)CCNC(=O)c1ccc2c(c1)[C@@H]1C=CC[C@@H]1[C@H](c1ccc(Cl)c([N+](=O)[O-])c1)N2
REMARK SMILES IDX 8 1 9 2 10 3 7 5 6 6 3 7 2 9 1 10 4 11 5 12 11 13 16 14
REMARK SMILES IDX 12 15 15 16 13 17 14 18 17 19 33 20 21 21 18 22 22 23 20 25
REMARK SMILES IDX 19 26 23 27 32 28 24 29 28 30 25 31 26 32 27 33 29 34 31 35
REMARK SMILES IDX 30 36
REMARK H PARENT 8 4 3 8 33 24
REMARK Flexibility Score: inf
ROOT
ATOM      1  N   UNL     1      -7.652   5.486  -0.579  1.00  0.00    -0.346 N 
ATOM      2  C   UNL     1      -6.939   5.341  -1.713  1.00  0.00     0.251 C 
ATOM      3  O   UNL     1      -7.510   5.175  -2.774  1.00  0.00    -0.269 OA
ATOM      4  H   UNL     1      -7.169   5.627   0.319  1.00  0.00     0.164 HD
ENDROOT
BRANCH   1   5
ATOM      5  C   UNL     1      -9.116   5.444  -0.624  1.00  0.00     0.177 C 
BRANCH   5   6
ATOM      6  C   UNL     1      -9.675   5.632   0.787  1.00  0.00     0.283 C 
BRANCH   6   7
ATOM      7  N   UNL     1     -11.151   5.565   0.729  1.00  0.00    -0.334 N 
ATOM      8  H   UNL     1     -11.427   4.707   0.231  1.00  0.00     0.348 HD
BRANCH   7   9
ATOM      9  C   UNL     1     -11.710   5.528   2.096  1.00  0.00     0.258 C 
ATOM     10  C   UNL     1     -11.537   4.116   2.658  1.00  0.00     0.071 C 
ENDBRANCH   7   9
BRANCH   7  11
ATOM     11  C   UNL     1     -11.681   6.736  -0.002  1.00  0.00     0.258 C 
ATOM     12  C   UNL     1     -13.140   6.464  -0.373  1.00  0.00     0.071 C 
ENDBRANCH   7  11
ENDBRANCH   6   7
ENDBRANCH   5   6
ENDBRANCH   1   5
BRANCH   2  13
ATOM     13  C   UNL     1      -5.465   5.384  -1.668  1.00  0.00     0.040 A 
ATOM     14  C   UNL     1      -4.726   5.235  -2.842  1.00  0.00     0.020 A 
ATOM     15  C   UNL     1      -4.808   5.576  -0.449  1.00  0.00     0.016 A 
ATOM     16  C   UNL     1      -3.344   5.274  -2.810  1.00  0.00    -0.017 A 
ATOM     17  C   UNL     1      -3.433   5.615  -0.418  1.00  0.00     0.027 A 
ATOM     18  C   UNL     1      -2.700   5.466  -1.593  1.00  0.00     0.038 A 
ATOM     19  C   UNL     1      -2.594   5.111  -4.094  1.00  0.00     0.049 C 
ATOM     20  N   UNL     1      -1.323   5.492  -1.537  1.00  0.00    -0.378 N 
ATOM     21  C   UNL     1      -1.099   5.466  -3.966  1.00  0.00     0.031 C 
ATOM     22  C   UNL     1      -2.567   3.656  -4.572  1.00  0.00    -0.023 C 
ATOM     23  C   UNL     1      -0.546   4.926  -2.644  1.00  0.00     0.114 C 
ATOM     24  H   UNL     1      -0.844   5.905  -0.724  1.00  0.00     0.161 HD
ATOM     25  C   UNL     1      -0.507   4.591  -5.109  1.00  0.00     0.034 C 
ATOM     26  C   UNL     1      -1.413   3.375  -5.126  1.00  0.00    -0.030 C 
BRANCH  23  27
ATOM     27  C   UNL     1      -0.662   3.423  -2.626  1.00  0.00    -0.019 A 
ATOM     28  C   UNL     1       0.441   2.642  -2.912  1.00  0.00     0.093 A 
ATOM     29  C   UNL     1      -1.873   2.827  -2.322  1.00  0.00     0.008 A 
ATOM     30  C   UNL     1       0.335   1.264  -2.896  1.00  0.00     0.288 A 
ATOM     31  C   UNL     1      -1.981   1.450  -2.311  1.00  0.00     0.028 A 
ATOM     32  C   UNL     1      -0.875   0.667  -2.593  1.00  0.00     0.118 A 
ATOM     33  Cl  UNL     1      -1.009  -1.064  -2.572  1.00  0.00    -0.077 Cl
BRANCH  30  34
ATOM     34  N   UNL     1       1.517   0.427  -3.202  1.00  0.00     0.064 N 
ATOM     35  O   UNL     1       2.583   0.952  -3.469  1.00  0.00    -0.258 OA
ATOM     36  O   UNL     1       1.423  -0.788  -3.187  1.00  0.00    -0.258 OA
ENDBRANCH  30  34
ENDBRANCH  23  27
ENDBRANCH   2  13
TORSDOF 8
