REMARK SMILES COc1cccc(CNC(=O)[C@H]2Cc3c([nH]c4ccccc34)[C@@H]3c4ccccc4C(=O)N32)c1
REMARK SMILES IDX 8 1 7 2 3 3 33 4 4 5 5 6 6 7 2 8 1 9 9 10 10 11 11 13 12 14
REMARK SMILES IDX 32 15 13 16 23 17 30 18 14 19 15 20 24 21 31 22 29 23 22 24
REMARK SMILES IDX 16 25 25 26 28 27 17 28 21 29 26 31 27 32 18 33 20 34 19 35
REMARK H PARENT 9 12 16 30
REMARK Flexibility Score: inf
ROOT
ATOM      1  C   UNL     1       4.428  -0.733   4.061  1.00  0.00     0.151 C 
ENDROOT
BRANCH   1   2
ATOM      2  C   UNL     1       3.804  -1.945   4.703  1.00  0.00    -0.025 A 
ATOM      3  C   UNL     1       3.991  -4.191   5.520  1.00  0.00     0.119 A 
ATOM      4  C   UNL     1       4.566  -3.076   4.929  1.00  0.00     0.052 A 
ATOM      5  C   UNL     1       2.652  -4.168   5.884  1.00  0.00     0.046 A 
ATOM      6  C   UNL     1       1.895  -3.035   5.656  1.00  0.00     0.004 A 
ATOM      7  C   UNL     1       2.472  -1.923   5.071  1.00  0.00     0.006 A 
BRANCH   3   8
ATOM      8  O   UNL     1       4.738  -5.304   5.744  1.00  0.00    -0.497 OA
ATOM      9  C   UNL     1       4.080  -6.415   6.356  1.00  0.00     0.278 C 
ENDBRANCH   3   8
ENDBRANCH   1   2
BRANCH   1  10
ATOM     10  N   UNL     1       4.284  -0.822   2.606  1.00  0.00    -0.350 N 
ATOM     11  C   UNL     1       4.771   0.158   1.819  1.00  0.00     0.243 C 
ATOM     12  H   UNL     1       3.811  -1.634   2.184  1.00  0.00     0.163 HD
ATOM     13  O   UNL     1       5.329   1.113   2.316  1.00  0.00    -0.273 OA
BRANCH  11  14
ATOM     14  C   UNL     1       4.622   0.066   0.322  1.00  0.00     0.180 C 
ATOM     15  N   UNL     1       5.228   1.243  -0.311  1.00  0.00    -0.314 N 
ATOM     16  C   UNL     1       3.134   0.046  -0.054  1.00  0.00     0.073 C 
ATOM     17  C   UNL     1       4.791   2.623  -0.000  1.00  0.00     0.164 C 
ATOM     18  C   UNL     1       6.158   1.293  -1.274  1.00  0.00     0.255 C 
ATOM     19  C   UNL     1       2.569   1.443  -0.018  1.00  0.00    -0.014 A 
ATOM     20  C   UNL     1       3.282   2.592  -0.011  1.00  0.00     0.047 A 
ATOM     21  C   UNL     1       5.354   3.495  -1.070  1.00  0.00    -0.007 A 
ATOM     22  O   UNL     1       6.860   0.363  -1.620  1.00  0.00    -0.269 OA
ATOM     23  C   UNL     1       6.200   2.643  -1.846  1.00  0.00     0.045 A 
ATOM     24  C   UNL     1       1.168   1.824   0.001  1.00  0.00     0.003 A 
ATOM     25  N   UNL     1       2.439   3.670  -0.001  1.00  0.00    -0.356 N 
ATOM     26  C   UNL     1       5.180   4.805  -1.401  1.00  0.00     0.007 A 
ATOM     27  C   UNL     1       6.912   3.149  -2.936  1.00  0.00     0.014 A 
ATOM     28  C   UNL     1       1.143   3.242   0.009  1.00  0.00     0.046 A 
ATOM     29  C   UNL     1      -0.013   1.076   0.008  1.00  0.00     0.010 A 
ATOM     30  H   UNL     1       2.737   4.656   0.000  1.00  0.00     0.166 HD
ATOM     31  C   UNL     1       5.886   5.294  -2.496  1.00  0.00     0.000 A 
ATOM     32  C   UNL     1       6.729   4.490  -3.237  1.00  0.00     0.001 A 
ATOM     33  C   UNL     1      -0.069   3.929   0.024  1.00  0.00     0.026 A 
ATOM     34  C   UNL     1      -1.192   1.779   0.017  1.00  0.00     0.001 A 
ATOM     35  C   UNL     1      -1.223   3.164   0.031  1.00  0.00     0.002 A 
ENDBRANCH  11  14
ENDBRANCH   1  10
TORSDOF 4
