REMARK SMILES Cc1ccc(C(C)C)c(OCc2nnc(SCc3cc(=O)oc4c(C)c(C)ccc34)n2N)c1
REMARK SMILES IDX 12 1 13 2 14 3 15 4 31 5 11 6 10 7 9 8 1 9 2 10 33 11 3 12
REMARK SMILES IDX 4 13 5 14 6 15 7 16 8 17 32 18 16 21 17 22 18 23 30 24 19 25
REMARK SMILES IDX 23 26 29 27 20 28 22 29 24 30 28 31 21 32 26 33 25 34 27 35
REMARK H PARENT 32 19 32 20
REMARK Flexibility Score: inf
ROOT
ATOM      1  C   UNL     1      -2.641  -4.980   1.661  1.00  0.00     0.190 A 
ATOM      2  N   UNL     1      -2.640  -4.681   0.393  1.00  0.00    -0.129 NA
ATOM      3  N   UNL     1      -2.615  -3.405   0.240  1.00  0.00    -0.121 NA
ATOM      4  C   UNL     1      -2.590  -2.816   1.413  1.00  0.00     0.210 A 
ATOM      5  N   UNL     1      -2.609  -3.803   2.357  1.00  0.00    -0.218 N 
ENDROOT
BRANCH   1   6
ATOM      6  C   UNL     1      -2.671  -6.366   2.252  1.00  0.00     0.308 C 
BRANCH   6   7
ATOM      7  O   UNL     1      -4.027  -6.772   2.446  1.00  0.00    -0.485 OA
BRANCH   7   8
ATOM      8  C   UNL     1      -4.232  -8.007   2.975  1.00  0.00     0.123 A 
ATOM      9  C   UNL     1      -2.187 -10.940   4.194  1.00  0.00     0.044 C 
ATOM     10  C   UNL     1      -3.361 -10.066   3.840  1.00  0.00    -0.047 A 
ATOM     11  C   UNL     1      -3.150  -8.811   3.302  1.00  0.00     0.050 A 
ATOM     12  C   UNL     1      -4.650 -10.520   4.053  1.00  0.00     0.004 A 
ATOM     13  C   UNL     1      -5.730  -9.720   3.728  1.00  0.00     0.008 A 
ATOM     14  C   UNL     1      -5.524  -8.462   3.196  1.00  0.00    -0.003 A 
BRANCH  14  15
ATOM     15  C   UNL     1      -6.702  -7.588   2.848  1.00  0.00     0.017 C 
ATOM     16  C   UNL     1      -7.574  -8.297   1.809  1.00  0.00     0.012 C 
ATOM     17  C   UNL     1      -7.527  -7.319   4.108  1.00  0.00     0.012 C 
ENDBRANCH  14  15
ENDBRANCH   7   8
ENDBRANCH   6   7
ENDBRANCH   1   6
BRANCH   5  18
ATOM     18  N   UNL     1      -2.598  -3.647   3.714  1.00  0.00    -0.335 N 
ATOM     19  H   UNL     1      -2.617  -4.525   4.252  1.00  0.00     0.178 HD
ATOM     20  H   UNL     1      -2.574  -2.730   4.183  1.00  0.00     0.178 HD
ENDBRANCH   5  18
BRANCH   4  21
ATOM     21  S   UNL     1      -2.548  -1.081   1.713  1.00  0.00    -0.080 SA
BRANCH  21  22
ATOM     22  C   UNL     1      -2.541  -0.467   0.010  1.00  0.00     0.114 C 
BRANCH  22  23
ATOM     23  C   UNL     1      -2.506   1.039   0.019  1.00  0.00    -0.019 A 
ATOM     24  C   UNL     1      -1.230   1.762   0.017  1.00  0.00     0.022 A 
ATOM     25  C   UNL     1      -3.653   1.764   0.028  1.00  0.00     0.099 A 
ATOM     26  C   UNL     1      -1.244   3.168   0.031  1.00  0.00     0.141 A 
ATOM     27  C   UNL     1      -0.013   1.076   0.008  1.00  0.00     0.012 A 
ATOM     28  C   UNL     1      -3.592   3.174   0.035  1.00  0.00     0.336 A 
ATOM     29  O   UNL     1      -2.421   3.829   0.046  1.00  0.00    -0.422 OA
ATOM     30  C   UNL     1      -0.041   3.862   0.023  1.00  0.00    -0.005 A 
ATOM     31  C   UNL     1       1.168   1.784   0.001  1.00  0.00     0.004 A 
ATOM     32  O   UNL     1      -4.629   3.812   0.044  1.00  0.00    -0.246 OA
ATOM     33  C   UNL     1       1.153   3.172   0.008  1.00  0.00    -0.044 A 
ATOM     34  C   UNL     1      -0.040   5.369   0.032  1.00  0.00     0.049 C 
ATOM     35  C   UNL     1       2.454   3.932   0.000  1.00  0.00     0.045 C 
ENDBRANCH  22  23
ENDBRANCH  21  22
ENDBRANCH   4  21
TORSDOF 8
