REMARK SMILES COc1ccc([C@@H]2CC(c3c(C)cc4oc(=O)c(C)c(C)c4c3[O-])=NN2)cc1O
REMARK SMILES IDX 9 1 25 2 26 3 7 4 8 5 10 7 12 8 11 9 13 10 23 11 14 12 22 13
REMARK SMILES IDX 24 14 15 15 20 16 16 17 18 18 21 19 17 20 19 21 6 22 27 23
REMARK SMILES IDX 5 24 28 25 4 26 3 27 29 28 2 30 1 31
REMARK H PARENT 26 6 29 29
REMARK Flexibility Score: inf
ROOT
ATOM      1  C   UNL     1      -4.561   3.047   1.200  1.00  0.00     0.070 C 
ATOM      2  N   UNL     1      -4.733   2.700  -0.029  1.00  0.00    -0.184 NA
ATOM      3  N   UNL     1      -3.690   3.068  -0.876  1.00  0.00    -0.302 NA
ATOM      4  C   UNL     1      -2.663   3.769  -0.089  1.00  0.00     0.135 C 
ATOM      5  C   UNL     1      -3.237   3.771   1.341  1.00  0.00     0.090 C 
ATOM      6  H   UNL     1      -3.645   2.880  -1.888  1.00  0.00     0.184 HD
ENDROOT
BRANCH   1   7
ATOM      7  C   UNL     1      -5.507   2.783   2.299  1.00  0.00    -0.006 A 
ATOM      8  C   UNL     1      -4.325   0.604   2.712  1.00  0.00     0.045 C 
ATOM      9  C   UNL     1      -5.405   1.602   3.042  1.00  0.00    -0.039 A 
ATOM     10  C   UNL     1      -6.282   1.343   4.072  1.00  0.00     0.052 A 
ATOM     11  C   UNL     1      -6.504   3.715   2.604  1.00  0.00    -0.088 A 
ATOM     12  C   UNL     1      -7.282   2.254   4.387  1.00  0.00     0.138 A 
ATOM     13  C   UNL     1      -7.398   3.447   3.649  1.00  0.00     0.014 A 
ATOM     14  O   UNL     1      -6.607   4.865   1.893  1.00  0.00    -0.872 OA
ATOM     15  O   UNL     1      -8.144   2.004   5.397  1.00  0.00    -0.423 OA
ATOM     16  C   UNL     1      -8.458   4.396   3.994  1.00  0.00    -0.031 A 
ATOM     17  C   UNL     1      -9.118   2.870   5.719  1.00  0.00     0.339 A 
ATOM     18  C   UNL     1      -9.291   4.083   5.021  1.00  0.00     0.038 A 
ATOM     19  C   UNL     1      -8.620   5.686   3.232  1.00  0.00     0.045 C 
ATOM     20  O   UNL     1      -9.871   2.600   6.637  1.00  0.00    -0.246 OA
ATOM     21  C   UNL     1     -10.396   5.029   5.413  1.00  0.00     0.052 C 
ENDBRANCH   1   7
BRANCH   4  22
ATOM     22  C   UNL     1      -1.356   3.020  -0.136  1.00  0.00    -0.020 A 
ATOM     23  C   UNL     1      -0.163   3.717  -0.173  1.00  0.00     0.056 A 
ATOM     24  C   UNL     1      -1.353   1.638  -0.145  1.00  0.00     0.010 A 
ATOM     25  C   UNL     1       1.040   3.030  -0.215  1.00  0.00     0.157 A 
ATOM     26  C   UNL     1      -0.157   0.946  -0.181  1.00  0.00     0.051 A 
ATOM     27  C   UNL     1       1.042   1.638  -0.219  1.00  0.00     0.160 A 
BRANCH  25  28
ATOM     28  O   UNL     1       2.215   3.713  -0.252  1.00  0.00    -0.504 OA
ATOM     29  H   UNL     1       2.675   3.385  -1.065  1.00  0.00     0.293 HD
ENDBRANCH  25  28
BRANCH  27  30
ATOM     30  O   UNL     1       2.220   0.959  -0.261  1.00  0.00    -0.493 OA
ATOM     31  C   UNL     1       2.146  -0.468  -0.263  1.00  0.00     0.278 C 
ENDBRANCH  27  30
ENDBRANCH   4  22
TORSDOF 4
