REMARK SMILES C=CCOC(=O)C1=C(C)NC(SCC(=O)Nc2ccc(C)c(C)c2)=C(C#N)[C@H]1c1ccc(Cl)cc1
REMARK SMILES IDX 11 1 25 2 28 3 7 4 8 5 10 6 9 7 12 9 13 10 14 11 16 12 15 14
REMARK SMILES IDX 17 15 21 16 20 17 22 18 19 19 24 20 23 21 18 22 26 23 27 24
REMARK SMILES IDX 29 25 35 26 30 27 34 28 31 29 32 30 33 31 5 32 6 33 4 34
REMARK SMILES IDX 3 35 2 36 1 37
REMARK H PARENT 10 8 16 13
REMARK Flexibility Score: inf
ROOT
ATOM      1  C   UNL     1      -4.395   2.168  -1.314  1.00  0.00     0.088 C 
ATOM      2  C   UNL     1      -3.318   1.340  -1.361  1.00  0.00     0.072 C 
ATOM      3  C   UNL     1      -2.533   1.012  -0.122  1.00  0.00     0.102 C 
ATOM      4  C   UNL     1      -3.309   1.370   1.113  1.00  0.00     0.069 C 
ATOM      5  C   UNL     1      -4.375   2.187   1.065  1.00  0.00     0.024 C 
ATOM      6  N   UNL     1      -4.801   2.721  -0.119  1.00  0.00    -0.353 N 
ATOM      7  C   UNL     1      -5.112   2.521   2.337  1.00  0.00     0.065 C 
ATOM      8  H   UNL     1      -5.427   3.539  -0.118  1.00  0.00     0.167 HD
ENDROOT
BRANCH   1   9
ATOM      9  S   UNL     1      -5.279   2.537  -2.793  1.00  0.00    -0.098 SA
BRANCH   9  10
ATOM     10  C   UNL     1      -6.553   3.640  -2.131  1.00  0.00     0.176 C 
BRANCH  10  11
ATOM     11  C   UNL     1      -7.454   4.095  -3.250  1.00  0.00     0.234 C 
ATOM     12  N   UNL     1      -8.482   4.928  -2.992  1.00  0.00    -0.325 N 
ATOM     13  H   UNL     1      -8.609   5.310  -2.044  1.00  0.00     0.169 HD
ATOM     14  O   UNL     1      -7.255   3.711  -4.383  1.00  0.00    -0.274 OA
BRANCH  12  15
ATOM     15  C   UNL     1      -9.375   5.274  -4.011  1.00  0.00     0.041 A 
ATOM     16  C   UNL     1     -12.105   6.332  -7.125  1.00  0.00     0.044 C 
ATOM     17  C   UNL     1     -11.142   5.958  -6.027  1.00  0.00    -0.048 A 
ATOM     18  C   UNL     1     -11.599   5.809  -4.731  1.00  0.00    -0.046 A 
ATOM     19  C   UNL     1      -9.804   5.767  -6.318  1.00  0.00     0.006 A 
ATOM     20  C   UNL     1     -10.720   5.467  -3.722  1.00  0.00     0.029 A 
ATOM     21  C   UNL     1     -13.058   6.018  -4.418  1.00  0.00     0.044 C 
ATOM     22  C   UNL     1      -8.919   5.430  -5.314  1.00  0.00     0.026 A 
ENDBRANCH  12  15
ENDBRANCH  10  11
ENDBRANCH   9  10
ENDBRANCH   1   9
BRANCH   2  23
ATOM     23  C   UNL     1      -2.923   0.772  -2.614  1.00  0.00     0.098 C 
ATOM     24  N   UNL     1      -2.609   0.321  -3.608  1.00  0.00    -0.193 NA
ENDBRANCH   2  23
BRANCH   3  25
ATOM     25  C   UNL     1      -1.239   1.783  -0.136  1.00  0.00    -0.035 A 
ATOM     26  C   UNL     1      -1.259   3.166  -0.133  1.00  0.00     0.006 A 
ATOM     27  C   UNL     1      -0.032   1.109  -0.145  1.00  0.00     0.006 A 
ATOM     28  C   UNL     1      -0.072   3.874  -0.152  1.00  0.00     0.021 A 
ATOM     29  C   UNL     1       1.155   1.816  -0.164  1.00  0.00     0.021 A 
ATOM     30  C   UNL     1       1.136   3.200  -0.167  1.00  0.00     0.041 A 
ATOM     31  Cl  UNL     1       2.627   4.089  -0.191  1.00  0.00    -0.084 Cl
ENDBRANCH   3  25
BRANCH   4  32
ATOM     32  C   UNL     1      -2.909   0.834   2.357  1.00  0.00     0.337 C 
ATOM     33  O   UNL     1      -3.218  -0.304   2.658  1.00  0.00    -0.246 OA
BRANCH  32  34
ATOM     34  O   UNL     1      -2.183   1.583   3.213  1.00  0.00    -0.458 OA
BRANCH  34  35
ATOM     35  C   UNL     1      -1.812   0.978   4.453  1.00  0.00     0.260 C 
BRANCH  35  36
ATOM     36  C   UNL     1      -1.012   1.957   5.272  1.00  0.00     0.006 C 
ATOM     37  C   UNL     1      -1.270   2.110   6.547  1.00  0.00     0.007 C 
ENDBRANCH  35  36
ENDBRANCH  34  35
ENDBRANCH  32  34
ENDBRANCH   4  32
TORSDOF 10
