REMARK SMILES NC(=O)[C@@H]1CC(C(=O)Nc2nc3c(s2)CN(Cc2ccccc2)CC3)=NN1c1ccccc1
REMARK SMILES IDX 16 1 24 2 25 3 12 4 13 5 14 6 10 7 11 8 15 9 17 10 18 11
REMARK SMILES IDX 21 12 22 13 20 14 23 15 19 16 9 17 7 18 8 20 6 21 5 22 26 23
REMARK SMILES IDX 4 24 27 25 2 26 3 27 1 28 28 31 33 32 29 33 32 34 30 35
REMARK SMILES IDX 31 36
REMARK H PARENT 9 19 1 29 1 30
REMARK Flexibility Score: inf
ROOT
ATOM      1  N   UNL     1      -5.904  -9.784  -0.338  1.00  0.00    -0.294 NA
ATOM      2  C   UNL     1      -4.785 -10.312   0.455  1.00  0.00     0.091 C 
ATOM      3  C   UNL     1      -3.466  -9.683  -0.003  1.00  0.00     0.073 C 
ATOM      4  C   UNL     1      -3.635  -8.168   0.001  1.00  0.00     0.059 A 
ATOM      5  C   UNL     1      -4.888  -7.637   0.014  1.00  0.00     0.044 A 
ATOM      6  S   UNL     1      -4.571  -5.895   0.026  1.00  0.00    -0.100 S 
ATOM      7  C   UNL     1      -2.835  -5.994   0.002  1.00  0.00     0.190 A 
ATOM      8  N   UNL     1      -2.632  -7.297  -0.006  1.00  0.00    -0.225 NA
ATOM      9  C   UNL     1      -6.180  -8.378   0.021  1.00  0.00     0.133 C 
ENDROOT
BRANCH   1  10
ATOM     10  C   UNL     1      -7.105 -10.615  -0.172  1.00  0.00     0.120 C 
BRANCH  10  11
ATOM     11  C   UNL     1      -8.148 -10.196  -1.175  1.00  0.00    -0.034 A 
ATOM     12  C   UNL     1     -10.063  -9.429  -3.016  1.00  0.00     0.000 A 
ATOM     13  C   UNL     1     -10.023  -8.831  -1.770  1.00  0.00     0.000 A 
ATOM     14  C   UNL     1      -9.146 -10.411  -3.341  1.00  0.00     0.000 A 
ATOM     15  C   UNL     1      -9.069  -9.218  -0.848  1.00  0.00     0.005 A 
ATOM     16  C   UNL     1      -8.188 -10.794  -2.421  1.00  0.00     0.005 A 
ENDBRANCH  10  11
ENDBRANCH   1  10
BRANCH   7  17
ATOM     17  N   UNL     1      -1.902  -4.966  -0.003  1.00  0.00    -0.297 N 
ATOM     18  C   UNL     1      -0.584  -5.252  -0.017  1.00  0.00     0.273 C 
ATOM     19  H   UNL     1      -2.216  -3.985   0.005  1.00  0.00     0.172 HD
ATOM     20  O   UNL     1      -0.213  -6.411  -0.026  1.00  0.00    -0.267 OA
BRANCH  18  21
ATOM     21  C   UNL     1       0.398  -4.169  -0.022  1.00  0.00     0.129 C 
ATOM     22  C   UNL     1       1.899  -4.352  -0.038  1.00  0.00     0.101 C 
ATOM     23  N   UNL     1       0.118  -2.905  -0.008  1.00  0.00    -0.171 NA
ATOM     24  C   UNL     1       2.450  -2.912  -0.036  1.00  0.00     0.203 C 
ATOM     25  N   UNL     1       1.239  -2.076  -0.020  1.00  0.00    -0.252 N 
BRANCH  24  26
ATOM     26  C   UNL     1       3.258  -2.649  -1.281  1.00  0.00     0.242 C 
ATOM     27  O   UNL     1       2.741  -2.115  -2.239  1.00  0.00    -0.273 OA
ATOM     28  N   UNL     1       4.556  -3.008  -1.329  1.00  0.00    -0.368 N 
ATOM     29  H   UNL     1       4.996  -3.462  -0.516  1.00  0.00     0.159 HD
ATOM     30  H   UNL     1       5.109  -2.829  -2.180  1.00  0.00     0.159 HD
ENDBRANCH  24  26
BRANCH  25  31
ATOM     31  C   UNL     1       1.216  -0.681  -0.013  1.00  0.00     0.060 A 
ATOM     32  C   UNL     1       2.407   0.035  -0.021  1.00  0.00     0.028 A 
ATOM     33  C   UNL     1       0.002  -0.004   0.002  1.00  0.00     0.028 A 
ATOM     34  C   UNL     1       2.380   1.416  -0.013  1.00  0.00     0.002 A 
ATOM     35  C   UNL     1      -0.017   1.377   0.010  1.00  0.00     0.002 A 
ATOM     36  C   UNL     1       1.171   2.086   0.002  1.00  0.00     0.000 A 
ENDBRANCH  25  31
ENDBRANCH  18  21
ENDBRANCH   7  17
TORSDOF 6
