REMARK SMILES C[C@@H](c1nc2ccccc2s1)N1CCN(C(=O)NCc2nc3ccccc3s2)CC1
REMARK SMILES IDX 12 1 13 2 14 3 15 4 29 5 30 6 16 7 17 8 18 9 2 11 1 12 3 13
REMARK SMILES IDX 11 14 4 15 10 16 5 17 9 18 6 19 8 20 7 21 19 22 20 23 28 24
REMARK SMILES IDX 21 25 27 26 22 27 26 28 23 29 25 30 24 31
REMARK H PARENT 18 10
REMARK Flexibility Score: inf
ROOT
ATOM      1  N   UNL     1      -1.384   3.583  -5.564  1.00  0.00    -0.291 NA
ATOM      2  C   UNL     1      -0.160   2.772  -5.614  1.00  0.00     0.107 C 
ATOM      3  C   UNL     1      -0.387   1.463  -4.850  1.00  0.00     0.137 C 
ATOM      4  N   UNL     1      -0.862   1.788  -3.497  1.00  0.00    -0.322 N 
ATOM      5  C   UNL     1      -2.006   2.703  -3.362  1.00  0.00     0.137 C 
ATOM      6  C   UNL     1      -1.712   3.967  -4.184  1.00  0.00     0.107 C 
ATOM      7  C   UNL     1      -0.268   1.258  -2.409  1.00  0.00     0.317 C 
ATOM      8  O   UNL     1      -0.729   1.465  -1.303  1.00  0.00    -0.249 OA
ATOM      9  N   UNL     1       0.837   0.499  -2.547  1.00  0.00    -0.331 N 
ATOM     10  H   UNL     1       1.182   0.259  -3.487  1.00  0.00     0.165 HD
ENDROOT
BRANCH   1  11
ATOM     11  C   UNL     1      -1.268   4.766  -6.426  1.00  0.00     0.113 C 
ATOM     12  C   UNL     1      -1.283   4.331  -7.893  1.00  0.00     0.032 C 
BRANCH  11  13
ATOM     13  C   UNL     1      -2.426   5.694  -6.165  1.00  0.00     0.111 A 
ATOM     14  S   UNL     1      -2.400   7.418  -5.955  1.00  0.00    -0.117 S 
ATOM     15  N   UNL     1      -3.690   5.397  -6.049  1.00  0.00    -0.240 NA
ATOM     16  C   UNL     1      -4.141   7.651  -5.707  1.00  0.00     0.055 A 
ATOM     17  C   UNL     1      -4.635   6.330  -5.808  1.00  0.00     0.082 A 
ATOM     18  C   UNL     1      -4.962   8.727  -5.471  1.00  0.00     0.021 A 
ATOM     19  C   UNL     1      -6.029   6.165  -5.654  1.00  0.00     0.030 A 
ATOM     20  C   UNL     1      -6.321   8.524  -5.325  1.00  0.00     0.002 A 
ATOM     21  C   UNL     1      -6.833   7.238  -5.419  1.00  0.00     0.002 A 
ENDBRANCH  11  13
ENDBRANCH   1  11
BRANCH   9  22
ATOM     22  C   UNL     1       1.546   0.015  -1.361  1.00  0.00     0.185 C 
BRANCH  22  23
ATOM     23  C   UNL     1       2.737  -0.804  -1.786  1.00  0.00     0.113 A 
ATOM     24  S   UNL     1       2.819  -2.513  -2.080  1.00  0.00    -0.117 S 
ATOM     25  N   UNL     1       3.955  -0.401  -2.018  1.00  0.00    -0.239 NA
ATOM     26  C   UNL     1       4.537  -2.594  -2.520  1.00  0.00     0.055 A 
ATOM     27  C   UNL     1       4.938  -1.244  -2.396  1.00  0.00     0.082 A 
ATOM     28  C   UNL     1       5.406  -3.589  -2.896  1.00  0.00     0.021 A 
ATOM     29  C   UNL     1       6.293  -0.962  -2.680  1.00  0.00     0.030 A 
ATOM     30  C   UNL     1       6.724  -3.272  -3.165  1.00  0.00     0.002 A 
ATOM     31  C   UNL     1       7.146  -1.954  -3.051  1.00  0.00     0.002 A 
ENDBRANCH  22  23
ENDBRANCH   9  22
TORSDOF 4
