REMARK SMILES CO[C@@H]1C[C@@H](C(=O)NC(C)(C)C)N(C[C@@H](O)[C@H](Cc2ccccc2)NC(=O)OCc2ccccc2)C1
REMARK SMILES IDX 15 1 14 2 13 3 5 4 4 5 36 6 3 7 6 8 8 9 7 11 9 12 10 13
REMARK SMILES IDX 11 14 12 15 2 16 1 17 17 18 18 19 19 20 24 21 20 22 23 23
REMARK SMILES IDX 21 24 22 25 25 26 26 27 27 29 28 30 29 31 30 32 35 33 31 34
REMARK SMILES IDX 34 35 32 36 33 37 16 38
REMARK H PARENT 8 10 25 28 16 39
REMARK Flexibility Score: inf
ROOT
ATOM      1  C   UNL     1       4.314   0.171  -1.482  1.00  0.00     0.151 C 
ENDROOT
BRANCH   1   2
ATOM      2  C   UNL     1       5.333   1.162  -0.915  1.00  0.00     0.119 C 
BRANCH   2   3
ATOM      3  N   UNL     1       6.685   0.600  -1.043  1.00  0.00    -0.287 NA
ATOM      4  C   UNL     1       7.717   1.621  -0.728  1.00  0.00     0.149 C 
ATOM      5  C   UNL     1       8.978   0.803  -0.375  1.00  0.00     0.062 C 
ATOM      6  C   UNL     1       6.913  -0.471  -0.039  1.00  0.00     0.117 C 
ATOM      7  C   UNL     1       8.449  -0.574   0.078  1.00  0.00     0.134 C 
BRANCH   4   8
ATOM      8  C   UNL     1       7.974   2.495  -1.928  1.00  0.00     0.237 C 
ATOM      9  N   UNL     1       8.881   3.490  -1.855  1.00  0.00    -0.350 N 
ATOM     10  H   UNL     1       9.398   3.652  -0.979  1.00  0.00     0.164 HD
ATOM     11  O   UNL     1       7.366   2.304  -2.959  1.00  0.00    -0.273 OA
BRANCH   9  12
ATOM     12  C   UNL     1       9.131   4.340  -3.021  1.00  0.00     0.032 C 
ATOM     13  C   UNL     1       7.836   5.049  -3.423  1.00  0.00     0.034 C 
ATOM     14  C   UNL     1      10.196   5.382  -2.674  1.00  0.00     0.034 C 
ATOM     15  C   UNL     1       9.622   3.478  -4.186  1.00  0.00     0.034 C 
ENDBRANCH   9  12
ENDBRANCH   4   8
BRANCH   7  16
ATOM     16  O   UNL     1       8.829  -0.831   1.432  1.00  0.00    -0.380 OA
ATOM     17  C   UNL     1       9.010  -2.216   1.732  1.00  0.00     0.195 C 
ENDBRANCH   7  16
ENDBRANCH   2   3
ENDBRANCH   1   2
BRANCH   1  18
ATOM     18  C   UNL     1       2.922   0.806  -1.464  1.00  0.00     0.119 C 
BRANCH  18  19
ATOM     19  C   UNL     1       2.490   1.048  -0.016  1.00  0.00     0.063 C 
BRANCH  19  20
ATOM     20  C   UNL     1       1.175   1.783   0.000  1.00  0.00    -0.046 A 
ATOM     21  C   UNL     1       1.156   3.165   0.008  1.00  0.00     0.004 A 
ATOM     22  C   UNL     1      -0.013   1.076   0.008  1.00  0.00     0.004 A 
ATOM     23  C   UNL     1      -0.050   3.840   0.022  1.00  0.00     0.000 A 
ATOM     24  C   UNL     1      -1.219   1.751   0.017  1.00  0.00     0.000 A 
ATOM     25  C   UNL     1      -1.238   3.133   0.029  1.00  0.00     0.000 A 
ENDBRANCH  19  20
ENDBRANCH  18  19
BRANCH  18  26
ATOM     26  N   UNL     1       1.966  -0.094  -2.114  1.00  0.00    -0.316 N 
ATOM     27  C   UNL     1       0.842   0.403  -2.668  1.00  0.00     0.407 C 
ATOM     28  H   UNL     1       2.154  -1.106  -2.148  1.00  0.00     0.167 HD
ATOM     29  O   UNL     1       0.622   1.597  -2.628  1.00  0.00    -0.225 OA
BRANCH  27  30
ATOM     30  O   UNL     1      -0.036  -0.425  -3.266  1.00  0.00    -0.445 OA
BRANCH  30  31
ATOM     31  C   UNL     1      -1.224   0.180  -3.841  1.00  0.00     0.270 C 
BRANCH  31  32
ATOM     32  C   UNL     1      -2.083  -0.892  -4.461  1.00  0.00    -0.011 A 
ATOM     33  C   UNL     1      -3.052  -1.525  -3.706  1.00  0.00     0.007 A 
ATOM     34  C   UNL     1      -1.905  -1.238  -5.788  1.00  0.00     0.007 A 
ATOM     35  C   UNL     1      -3.840  -2.508  -4.275  1.00  0.00     0.000 A 
ATOM     36  C   UNL     1      -2.689  -2.225  -6.356  1.00  0.00     0.000 A 
ATOM     37  C   UNL     1      -3.659  -2.858  -5.600  1.00  0.00     0.000 A 
ENDBRANCH  31  32
ENDBRANCH  30  31
ENDBRANCH  27  30
ENDBRANCH  18  26
ENDBRANCH   1  18
BRANCH   1  38
ATOM     38  O   UNL     1       4.307  -1.014  -0.684  1.00  0.00    -0.390 OA
ATOM     39  H   UNL     1       4.061  -0.785   0.248  1.00  0.00     0.211 HD
ENDBRANCH   1  38
TORSDOF 13
