REMARK SMILES CCOC(=O)c1sc2nc(CSc3nncn3-c3ccc(C)cc3C)nc(N)c2c1C
REMARK SMILES IDX 6 1 30 2 29 3 27 4 26 5 10 6 9 7 8 8 7 9 31 10 4 11 5 12
REMARK SMILES IDX 3 13 2 14 1 15 28 16 11 19 12 20 13 21 17 22 14 23 16 24
REMARK SMILES IDX 15 25 18 26 24 27 19 28 23 29 25 30 20 31 21 32 22 33
REMARK H PARENT 28 17 28 18
REMARK Flexibility Score: inf
ROOT
ATOM      1  C   UNL     1      -5.341   4.111  10.304  1.00  0.00     0.118 A 
ATOM      2  C   UNL     1      -5.849   2.889   9.981  1.00  0.00    -0.012 A 
ATOM      3  C   UNL     1      -5.924   2.498   8.638  1.00  0.00     0.057 A 
ATOM      4  C   UNL     1      -6.414   1.281   8.077  1.00  0.00     0.136 A 
ATOM      5  N   UNL     1      -6.396   1.122   6.764  1.00  0.00    -0.215 NA
ATOM      6  C   UNL     1      -5.929   2.050   5.948  1.00  0.00     0.142 A 
ATOM      7  N   UNL     1      -5.462   3.196   6.403  1.00  0.00    -0.221 NA
ATOM      8  C   UNL     1      -5.446   3.444   7.697  1.00  0.00     0.130 A 
ATOM      9  S   UNL     1      -4.926   4.803   8.712  1.00  0.00    -0.108 S 
ATOM     10  C   UNL     1      -6.330   1.960  11.065  1.00  0.00     0.047 C 
ENDROOT
BRANCH   1  11
ATOM     11  C   UNL     1      -5.175   4.710  11.632  1.00  0.00     0.348 C 
ATOM     12  O   UNL     1      -5.544   4.106  12.621  1.00  0.00    -0.245 OA
BRANCH  11  13
ATOM     13  O   UNL     1      -4.612   5.929  11.757  1.00  0.00    -0.462 OA
BRANCH  13  14
ATOM     14  C   UNL     1      -4.480   6.459  13.102  1.00  0.00     0.230 C 
ATOM     15  C   UNL     1      -3.825   7.841  13.043  1.00  0.00     0.049 C 
ENDBRANCH  13  14
ENDBRANCH  11  13
ENDBRANCH   1  11
BRANCH   4  16
ATOM     16  N   UNL     1      -6.906   0.284   8.895  1.00  0.00    -0.383 N 
ATOM     17  H   UNL     1      -6.918   0.421   9.916  1.00  0.00     0.158 HD
ATOM     18  H   UNL     1      -7.259  -0.594   8.487  1.00  0.00     0.158 HD
ENDBRANCH   4  16
BRANCH   6  19
ATOM     19  C   UNL     1      -5.935   1.794   4.463  1.00  0.00     0.155 C 
BRANCH  19  20
ATOM     20  S   UNL     1      -4.376   1.013   3.978  1.00  0.00    -0.078 SA
BRANCH  20  21
ATOM     21  C   UNL     1      -4.649   0.834   2.247  1.00  0.00     0.196 A 
ATOM     22  N   UNL     1      -3.783   0.289   1.339  1.00  0.00    -0.276 N 
ATOM     23  N   UNL     1      -5.721   1.199   1.583  1.00  0.00    -0.123 NA
ATOM     24  C   UNL     1      -4.418   0.369   0.128  1.00  0.00     0.231 A 
ATOM     25  N   UNL     1      -5.581   0.920   0.337  1.00  0.00    -0.138 NA
BRANCH  22  26
ATOM     26  C   UNL     1      -2.508  -0.237   1.594  1.00  0.00     0.052 A 
ATOM     27  C   UNL     1      -2.369  -1.373   2.379  1.00  0.00    -0.027 A 
ATOM     28  C   UNL     1      -1.383   0.374   1.056  1.00  0.00     0.027 A 
ATOM     29  C   UNL     1      -1.111  -1.886   2.633  1.00  0.00     0.009 A 
ATOM     30  C   UNL     1      -3.587  -2.043   2.959  1.00  0.00     0.046 C 
ATOM     31  C   UNL     1      -0.129  -0.146   1.309  1.00  0.00     0.005 A 
ATOM     32  C   UNL     1       0.007  -1.275   2.097  1.00  0.00    -0.051 A 
ATOM     33  C   UNL     1       1.377  -1.840   2.371  1.00  0.00     0.044 C 
ENDBRANCH  22  26
ENDBRANCH  20  21
ENDBRANCH  19  20
ENDBRANCH   6  19
TORSDOF 8
