REMARK SMILES Cc1ccc(OCc2nc(CC(=O)OCC(=O)Nc3sc4c(c3C#N)CCCCC4)cs2)cc1
REMARK SMILES IDX 14 1 12 2 13 3 11 4 10 5 8 6 32 7 9 8 31 9 7 10 6 11 5 12
REMARK SMILES IDX 1 13 2 14 34 15 3 16 33 17 4 18 15 19 16 20 17 21 18 22
REMARK SMILES IDX 19 24 20 25 23 26 21 27 22 28 24 29 25 30 30 31 29 32 28 33
REMARK SMILES IDX 26 35 27 36
REMARK H PARENT 18 23
REMARK Flexibility Score: 90.00
ROOT
ATOM      1  O   UNL     1      -6.228   4.021   4.110  1.00  0.00    -0.455 OA
ENDROOT
BRANCH   1   2
ATOM      2  C   UNL     1      -5.503   3.952   2.983  1.00  0.00     0.312 C 
ATOM      3  O   UNL     1      -4.947   2.921   2.685  1.00  0.00    -0.252 OA
BRANCH   2   4
ATOM      4  C   UNL     1      -5.381   5.159   2.089  1.00  0.00     0.179 C 
BRANCH   4   5
ATOM      5  C   UNL     1      -4.519   4.819   0.900  1.00  0.00     0.063 A 
ATOM      6  C   UNL     1      -2.545   4.034   0.036  1.00  0.00     0.131 A 
ATOM      7  S   UNL     1      -3.565   4.445  -1.308  1.00  0.00    -0.124 S 
ATOM      8  N   UNL     1      -3.308   4.329   1.063  1.00  0.00    -0.242 NA
ATOM      9  C   UNL     1      -4.976   5.005  -0.365  1.00  0.00     0.091 A 
BRANCH   6  10
ATOM     10  C   UNL     1      -1.145   3.475   0.026  1.00  0.00     0.297 C 
BRANCH  10  11
ATOM     11  O   UNL     1      -1.202   2.048   0.019  1.00  0.00    -0.486 OA
BRANCH  11  12
ATOM     12  C   UNL     1      -0.017   1.383   0.010  1.00  0.00     0.119 A 
ATOM     13  C   UNL     1       3.711  -0.707  -0.037  1.00  0.00     0.044 C 
ATOM     14  C   UNL     1       2.396   0.030  -0.021  1.00  0.00    -0.051 A 
ATOM     15  C   UNL     1       2.380   1.413  -0.013  1.00  0.00     0.007 A 
ATOM     16  C   UNL     1       1.208  -0.677  -0.013  1.00  0.00     0.007 A 
ATOM     17  C   UNL     1       1.177   2.091   0.002  1.00  0.00     0.047 A 
ATOM     18  C   UNL     1       0.002  -0.004   0.002  1.00  0.00     0.047 A 
ENDBRANCH  11  12
ENDBRANCH  10  11
ENDBRANCH   6  10
ENDBRANCH   4   5
ENDBRANCH   2   4
ENDBRANCH   1   2
BRANCH   1  19
ATOM     19  C   UNL     1      -6.301   2.820   4.922  1.00  0.00     0.333 C 
BRANCH  19  20
ATOM     20  C   UNL     1      -7.152   3.086   6.137  1.00  0.00     0.263 C 
ATOM     21  O   UNL     1      -7.648   4.181   6.302  1.00  0.00    -0.271 OA
ATOM     22  N   UNL     1      -7.362   2.108   7.040  1.00  0.00    -0.314 N 
ATOM     23  H   UNL     1      -6.941   1.179   6.900  1.00  0.00     0.170 HD
BRANCH  22  24
ATOM     24  C   UNL     1      -8.146   2.353   8.159  1.00  0.00     0.114 A 
ATOM     25  S   UNL     1      -8.953   3.819   8.608  1.00  0.00    -0.121 S 
ATOM     26  C   UNL     1      -8.478   1.484   9.185  1.00  0.00     0.090 A 
ATOM     27  C   UNL     1      -9.702   3.281  10.122  1.00  0.00     0.011 A 
ATOM     28  C   UNL     1      -9.319   1.992  10.260  1.00  0.00    -0.014 A 
BRANCH  26  29
ATOM     29  C   UNL     1      -8.008   0.131   9.190  1.00  0.00     0.103 C 
ATOM     30  N   UNL     1      -7.635  -0.942   9.194  1.00  0.00    -0.192 NA
ENDBRANCH  26  29
BRANCH  27  31
ATOM     31  C   UNL     1     -10.579   4.077  11.036  1.00  0.00     0.047 C 
BRANCH  31  32
ATOM     32  C   UNL     1     -10.090   3.910  12.481  1.00  0.00     0.006 C 
BRANCH  32  33
ATOM     33  C   UNL     1     -10.797   2.704  13.092  1.00  0.00     0.001 CG0
ATOM     34  G   UNL     1     -11.053   1.646  12.021  1.00  0.00     0.000 G0
ENDBRANCH  32  33
ENDBRANCH  31  32
ENDBRANCH  27  31
BRANCH  28  35
ATOM     35  C   UNL     1      -9.735   1.137  11.450  1.00  0.00     0.038 C 
BRANCH  35  36
ATOM     36  C   UNL     1     -11.053   1.646  12.021  1.00  0.00     0.005 CG0
ATOM     37  G   UNL     1     -10.797   2.704  13.092  1.00  0.00     0.000 G0
ENDBRANCH  35  36
ENDBRANCH  28  35
ENDBRANCH  22  24
ENDBRANCH  19  20
ENDBRANCH   1  19
TORSDOF 10
