REMARK SMILES N#CC1=C(N)Oc2c(c(C(F)(F)C(F)(F)F)nn2-c2ccccc2)[C@H]1c1cnc2ccccc2n1
REMARK SMILES IDX 18 1 7 2 8 3 9 4 17 5 25 6 3 7 4 8 6 9 19 10 22 11 23 12
REMARK SMILES IDX 21 13 24 14 20 15 10 16 11 17 12 18 13 19 14 20 15 21 16 22
REMARK SMILES IDX 5 23 26 26 35 27 27 28 34 29 28 30 29 31 33 32 30 33 32 34
REMARK SMILES IDX 31 35 2 36 1 37
REMARK H PARENT 5 24 5 25
REMARK Flexibility Score: inf
ROOT
ATOM      1  N   UNL     1       0.009   5.456   0.626  1.00  0.00    -0.200 N 
ATOM      2  C   UNL     1       0.143   4.150   0.310  1.00  0.00     0.229 A 
ATOM      3  C   UNL     1      -1.105   3.591   0.334  1.00  0.00     0.059 A 
ATOM      4  C   UNL     1      -2.015   4.583   0.673  1.00  0.00     0.150 A 
ATOM      5  N   UNL     1      -1.355   5.703   0.850  1.00  0.00    -0.162 NA
ATOM      6  C   UNL     1      -1.349   2.136   0.020  1.00  0.00     0.124 C 
ATOM      7  C   UNL     1      -0.017   1.428   0.010  1.00  0.00     0.103 C 
ATOM      8  C   UNL     1       1.158   2.094   0.002  1.00  0.00     0.207 C 
ATOM      9  O   UNL     1       1.259   3.439   0.012  1.00  0.00    -0.422 OA
ENDROOT
BRANCH   1  10
ATOM     10  C   UNL     1       1.044   6.396   0.714  1.00  0.00     0.069 A 
ATOM     11  C   UNL     1       3.090   8.252   0.888  1.00  0.00     0.000 A 
ATOM     12  C   UNL     1       3.312   6.941   1.271  1.00  0.00     0.002 A 
ATOM     13  C   UNL     1       1.847   8.636   0.419  1.00  0.00     0.002 A 
ATOM     14  C   UNL     1       2.292   6.014   1.190  1.00  0.00     0.028 A 
ATOM     15  C   UNL     1       0.824   7.712   0.331  1.00  0.00     0.028 A 
ENDBRANCH   1  10
BRANCH   4  16
ATOM     16  C   UNL     1      -3.505   4.404   0.815  1.00  0.00     0.385 C 
ATOM     17  F   UNL     1      -4.039   3.964  -0.402  1.00  0.00    -0.189 F 
ATOM     18  F   UNL     1      -3.768   3.456   1.809  1.00  0.00    -0.189 F 
BRANCH  16  19
ATOM     19  C   UNL     1      -4.145   5.739   1.200  1.00  0.00     0.459 C 
ATOM     20  F   UNL     1      -3.881   6.687   0.206  1.00  0.00    -0.165 F 
ATOM     21  F   UNL     1      -5.527   5.572   1.331  1.00  0.00    -0.165 F 
ATOM     22  F   UNL     1      -3.610   6.178   2.416  1.00  0.00    -0.165 F 
ENDBRANCH  16  19
ENDBRANCH   4  16
BRANCH   8  23
ATOM     23  N   UNL     1       2.318   1.360  -0.018  1.00  0.00    -0.369 N 
ATOM     24  H   UNL     1       2.300   0.330  -0.026  1.00  0.00     0.159 HD
ATOM     25  H   UNL     1       3.222   1.853  -0.024  1.00  0.00     0.159 HD
ENDBRANCH   8  23
BRANCH   6  26
ATOM     26  C   UNL     1      -2.005   2.005  -1.330  1.00  0.00     0.073 A 
ATOM     27  N   UNL     1      -3.311   1.891  -1.410  1.00  0.00    -0.249 NA
ATOM     28  C   UNL     1      -1.218   2.011  -2.484  1.00  0.00     0.136 A 
ATOM     29  C   UNL     1      -3.894   1.776  -2.608  1.00  0.00     0.089 A 
ATOM     30  N   UNL     1      -1.767   1.894  -3.671  1.00  0.00    -0.253 NA
ATOM     31  C   UNL     1      -3.095   1.777  -3.779  1.00  0.00     0.089 A 
ATOM     32  C   UNL     1      -5.290   1.653  -2.727  1.00  0.00     0.030 A 
ATOM     33  C   UNL     1      -3.714   1.655  -5.035  1.00  0.00     0.030 A 
ATOM     34  C   UNL     1      -5.854   1.538  -3.960  1.00  0.00     0.002 A 
ATOM     35  C   UNL     1      -5.068   1.538  -5.111  1.00  0.00     0.002 A 
ENDBRANCH   6  26
BRANCH   7  36
ATOM     36  C   UNL     1       0.002  -0.004   0.002  1.00  0.00     0.101 C 
ATOM     37  N   UNL     1       0.018  -1.140  -0.004  1.00  0.00    -0.193 NA
ENDBRANCH   7  36
TORSDOF 6
