REMARK SMILES CCN1C(=O)C(/C(=N/C2CCCCCC2)c2cc3ccccc3c(=O)[nH]2)C(=O)N(CC)C1=S
REMARK SMILES IDX 9 1 8 2 7 3 6 4 3 5 32 6 4 7 29 8 33 9 5 10 27 11 28 12 2 13
REMARK SMILES IDX 1 14 30 15 31 16 16 17 26 18 17 19 24 20 18 22 23 23 25 24
REMARK SMILES IDX 19 25 22 26 20 27 21 28 15 29 14 30 13 31 10 33 11 34 12 35
REMARK H PARENT 26 21
REMARK Flexibility Score: 90.00
ROOT
ATOM      1  C   UNL     1      -2.489   5.530   0.006  1.00  0.00     0.106 C 
ENDROOT
BRANCH   1   2
ATOM      2  N   UNL     1      -1.240   6.295  -0.002  1.00  0.00    -0.283 NA
ATOM      3  C   UNL     1      -0.102   5.676   0.020  1.00  0.00     0.081 C 
BRANCH   3   4
ATOM      4  C   UNL     1       1.181   6.462   0.118  1.00  0.00     0.219 C 
ATOM      5  N   UNL     1       1.208   8.725   1.063  1.00  0.00    -0.288 N 
ATOM      6  C   UNL     1       1.853   8.239   2.130  1.00  0.00     0.185 C 
ATOM      7  C   UNL     1       0.839   7.937   0.031  1.00  0.00     0.247 C 
ATOM      8  N   UNL     1       2.196   6.957   2.296  1.00  0.00    -0.288 N 
ATOM      9  S   UNL     1       2.269   9.338   3.375  1.00  0.00    -0.040 S 
ATOM     10  O   UNL     1       0.254   8.392  -0.929  1.00  0.00    -0.273 OA
ATOM     11  C   UNL     1       1.910   6.019   1.372  1.00  0.00     0.247 C 
ATOM     12  O   UNL     1       2.227   4.861   1.540  1.00  0.00    -0.273 OA
BRANCH   5  13
ATOM     13  C   UNL     1       0.894  10.155   1.013  1.00  0.00     0.124 C 
ATOM     14  C   UNL     1      -0.478  10.398   1.644  1.00  0.00     0.028 C 
ENDBRANCH   5  13
BRANCH   8  15
ATOM     15  C   UNL     1       2.901   6.561   3.518  1.00  0.00     0.124 C 
ATOM     16  C   UNL     1       1.882   6.169   4.590  1.00  0.00     0.028 C 
ENDBRANCH   8  15
ENDBRANCH   3   4
BRANCH   3  17
ATOM     17  C   UNL     1      -0.061   4.208  -0.052  1.00  0.00     0.064 A 
ATOM     18  N   UNL     1      -0.580   3.474   0.992  1.00  0.00    -0.320 N 
ATOM     19  C   UNL     1       0.487   3.617  -1.145  1.00  0.00     0.037 A 
ATOM     20  C   UNL     1      -0.570   2.127   0.995  1.00  0.00     0.256 A 
ATOM     21  H   UNL     1      -0.988   3.971   1.796  1.00  0.00     0.170 HD
ATOM     22  C   UNL     1       0.533   2.158  -1.225  1.00  0.00    -0.011 A 
ATOM     23  C   UNL     1      -0.001   1.406  -0.152  1.00  0.00     0.047 A 
ATOM     24  O   UNL     1      -1.033   1.511   1.938  1.00  0.00    -0.269 OA
ATOM     25  C   UNL     1       1.085   1.498  -2.325  1.00  0.00     0.009 A 
ATOM     26  C   UNL     1       0.030   0.014  -0.202  1.00  0.00     0.014 A 
ATOM     27  C   UNL     1       1.104   0.121  -2.352  1.00  0.00     0.001 A 
ATOM     28  C   UNL     1       0.580  -0.616  -1.298  1.00  0.00     0.001 A 
ENDBRANCH   3  17
ENDBRANCH   1   2
BRANCH   1  29
ATOM     29  C   UNL     1      -3.195   5.793   1.252  1.00  0.00     0.027 C 
BRANCH  29  30
ATOM     30  C   UNL     1      -4.496   4.973   1.375  1.00  0.00     0.002 C 
BRANCH  30  31
ATOM     31  C   UNL     1      -5.568   5.655   0.569  1.00  0.00     0.000 CG0
ATOM     32  G   UNL     1      -5.683   5.087  -0.859  1.00  0.00     0.000 G0
ENDBRANCH  30  31
ENDBRANCH  29  30
ENDBRANCH   1  29
BRANCH   1  33
ATOM     33  C   UNL     1      -3.322   5.920  -1.232  1.00  0.00     0.027 C 
BRANCH  33  34
ATOM     34  C   UNL     1      -4.312   4.819  -1.508  1.00  0.00     0.002 C 
BRANCH  34  35
ATOM     35  C   UNL     1      -5.683   5.087  -0.859  1.00  0.00     0.000 CG0
ATOM     36  G   UNL     1      -5.568   5.655   0.569  1.00  0.00     0.000 G0
ENDBRANCH  34  35
ENDBRANCH  33  34
ENDBRANCH   1  33
TORSDOF 5
