REMARK SMILES CC(C)(C)c1ccc(-c2cc(C[C@H]3C[NH2+]CC[C@H]3CC(=O)N3CCN(Cc4ccccc4)CC3)no2)cc1
REMARK SMILES IDX 13 1 14 2 16 3 17 4 18 5 15 6 12 9 11 10 9 11 36 12 10 13
REMARK SMILES IDX 35 14 8 15 5 16 38 17 6 18 37 19 7 20 2 21 1 22 3 23 4 24
REMARK SMILES IDX 19 25 20 26 21 27 22 28 34 29 23 30 33 31 24 32 25 33 26 34
REMARK SMILES IDX 27 35 32 36 28 37 31 38 29 39 30 40
REMARK H PARENT 15 7 15 8
REMARK Flexibility Score: inf
ROOT
ATOM      1  C   UNL     1       3.778  -3.114   9.040  1.00  0.00     0.054 C 
ATOM      2  C   UNL     1       5.121  -2.380   9.020  1.00  0.00     0.264 C 
ATOM      3  C   UNL     1       5.239  -2.411  11.440  1.00  0.00     0.260 C 
ATOM      4  C   UNL     1       3.900  -3.146  11.532  1.00  0.00     0.066 C 
ATOM      5  C   UNL     1       3.708  -4.009  10.280  1.00  0.00     0.013 C 
ATOM      6  N   UNL     1       5.256  -1.557  10.237  1.00  0.00    -0.346 N 
ATOM      7  H   UNL     1       6.144  -1.038  10.201  1.00  0.00     0.346 HD
ATOM      8  H   UNL     1       4.476  -0.886  10.285  1.00  0.00     0.346 HD
ENDROOT
BRANCH   1   9
ATOM      9  C   UNL     1       2.638  -2.094   9.081  1.00  0.00     0.069 C 
BRANCH   9  10
ATOM     10  C   UNL     1       2.634  -1.294   7.804  1.00  0.00     0.085 A 
ATOM     11  C   UNL     1       2.055  -0.328   5.928  1.00  0.00     0.167 A 
ATOM     12  O   UNL     1       3.334  -0.081   6.263  1.00  0.00    -0.356 OA
ATOM     13  C   UNL     1       1.551  -1.130   6.916  1.00  0.00     0.078 A 
ATOM     14  N   UNL     1       3.630  -0.620   7.304  1.00  0.00    -0.084 NA
BRANCH  11  15
ATOM     15  C   UNL     1       1.339   0.162   4.731  1.00  0.00     0.020 A 
ATOM     16  C   UNL     1       0.000   1.080   2.488  1.00  0.00    -0.043 A 
ATOM     17  C   UNL     1       1.322   1.433   2.693  1.00  0.00     0.005 A 
ATOM     18  C   UNL     1      -0.657   0.275   3.401  1.00  0.00     0.005 A 
ATOM     19  C   UNL     1       1.995   0.979   3.808  1.00  0.00     0.012 A 
ATOM     20  C   UNL     1       0.006  -0.190   4.518  1.00  0.00     0.012 A 
BRANCH  16  21
ATOM     21  C   UNL     1      -0.729   1.579   1.267  1.00  0.00    -0.013 C 
ATOM     22  C   UNL     1      -0.013   1.086   0.008  1.00  0.00     0.016 C 
ATOM     23  C   UNL     1      -0.750   3.109   1.275  1.00  0.00     0.016 C 
ATOM     24  C   UNL     1      -2.164   1.050   1.278  1.00  0.00     0.016 C 
ENDBRANCH  16  21
ENDBRANCH  11  15
ENDBRANCH   9  10
ENDBRANCH   1   9
BRANCH   5  25
ATOM     25  C   UNL     1       2.344  -4.699  10.337  1.00  0.00     0.104 C 
BRANCH  25  26
ATOM     26  C   UNL     1       2.321  -5.672  11.488  1.00  0.00     0.222 C 
ATOM     27  O   UNL     1       3.299  -5.800  12.194  1.00  0.00    -0.275 OA
ATOM     28  N   UNL     1       1.213  -6.399  11.734  1.00  0.00    -0.340 N 
ATOM     29  C   UNL     1       1.169  -7.353  12.852  1.00  0.00     0.135 C 
ATOM     30  C   UNL     1       0.014  -6.255  10.894  1.00  0.00     0.135 C 
ATOM     31  C   UNL     1       0.684  -8.706  12.319  1.00  0.00     0.106 C 
ATOM     32  C   UNL     1      -0.424  -7.654  10.435  1.00  0.00     0.106 C 
ATOM     33  N   UNL     1      -0.609  -8.508  11.629  1.00  0.00    -0.296 NA
BRANCH  33  34
ATOM     34  C   UNL     1      -1.175  -9.814  11.232  1.00  0.00     0.120 C 
BRANCH  34  35
ATOM     35  C   UNL     1      -2.339  -9.586  10.303  1.00  0.00    -0.034 A 
ATOM     36  C   UNL     1      -2.134  -9.542   8.936  1.00  0.00     0.005 A 
ATOM     37  C   UNL     1      -3.612  -9.428  10.816  1.00  0.00     0.005 A 
ATOM     38  C   UNL     1      -3.201  -9.333   8.084  1.00  0.00     0.000 A 
ATOM     39  C   UNL     1      -4.679  -9.215   9.963  1.00  0.00     0.000 A 
ATOM     40  C   UNL     1      -4.474  -9.170   8.597  1.00  0.00     0.000 A 
ENDBRANCH  34  35
ENDBRANCH  33  34
ENDBRANCH  25  26
ENDBRANCH   5  25
TORSDOF 8
