REMARK SMILES C[C@H]1CC(C)(C)C[C@]2(C1)[N-]C(=O)N(CC(=O)NNC(=O)C1CCCCC1)C2=O
REMARK SMILES IDX 15 1 16 2 17 3 14 5 13 6 1 7 2 8 9 9 3 10 8 11 4 12 7 13
REMARK SMILES IDX 10 14 27 15 5 16 6 17 11 18 28 19 12 20 18 21 19 22 20 24
REMARK SMILES IDX 21 25 26 26 22 27 25 28 23 29 24 30
REMARK H PARENT 17 4 18 23
REMARK Flexibility Score: inf
ROOT
ATOM      1  C   UNL     1      -2.797   1.521   1.700  1.00  0.00     0.238 C 
ATOM      2  O   UNL     1      -1.968   1.910   2.495  1.00  0.00    -0.273 OA
ATOM      3  N   UNL     1      -4.004   1.108   2.133  1.00  0.00    -0.268 N 
ATOM      4  H   UNL     1      -4.708   0.778   1.458  1.00  0.00     0.191 HD
ENDROOT
BRANCH   1   5
ATOM      5  C   UNL     1      -2.476   1.500   0.228  1.00  0.00     0.114 C 
BRANCH   5   6
ATOM      6  N   UNL     1      -1.114   1.993   0.017  1.00  0.00    -0.372 N 
ATOM      7  C   UNL     1       3.848   0.197  -1.929  1.00  0.00     0.007 C 
ATOM      8  C   UNL     1       2.905   0.544  -0.773  1.00  0.00    -0.013 C 
ATOM      9  C   UNL     1       2.125   1.813  -1.123  1.00  0.00     0.017 C 
ATOM     10  C   UNL     1       3.726   0.807   0.487  1.00  0.00     0.009 C 
ATOM     11  C   UNL     1       1.160   2.157   0.003  1.00  0.00     0.037 C 
ATOM     12  C   UNL     1       2.820   1.133   1.670  1.00  0.00    -0.034 C 
ATOM     13  C   UNL     1       1.831   2.242   1.357  1.00  0.00     0.020 C 
ATOM     14  N   UNL     1       0.529   3.463  -0.295  1.00  0.00    -0.416 NA
ATOM     15  C   UNL     1      -0.014   1.208   0.009  1.00  0.00     0.156 C 
ATOM     16  C   UNL     1       3.718   1.605   2.834  1.00  0.00     0.011 C 
ATOM     17  C   UNL     1       2.090  -0.130   2.135  1.00  0.00     0.011 C 
ATOM     18  C   UNL     1      -0.797   3.276  -0.189  1.00  0.00     0.162 C 
ATOM     19  O   UNL     1       0.002  -0.004   0.002  1.00  0.00    -0.298 OA
ATOM     20  O   UNL     1      -1.617   4.170  -0.270  1.00  0.00    -0.298 OA
ENDBRANCH   5   6
ENDBRANCH   1   5
BRANCH   3  21
ATOM     21  N   UNL     1      -4.302   1.128   3.502  1.00  0.00    -0.267 N 
ATOM     22  C   UNL     1      -5.510   0.715   3.935  1.00  0.00     0.241 C 
ATOM     23  H   UNL     1      -3.598   1.458   4.177  1.00  0.00     0.191 HD
ATOM     24  O   UNL     1      -6.339   0.326   3.139  1.00  0.00    -0.273 OA
BRANCH  22  25
ATOM     25  C   UNL     1      -5.830   0.736   5.407  1.00  0.00     0.080 C 
ATOM     26  C   UNL     1      -7.254   0.221   5.627  1.00  0.00     0.013 C 
ATOM     27  C   UNL     1      -4.842  -0.160   6.157  1.00  0.00     0.013 C 
ATOM     28  C   UNL     1      -7.579   0.243   7.122  1.00  0.00     0.001 C 
ATOM     29  C   UNL     1      -5.168  -0.138   7.652  1.00  0.00     0.001 C 
ATOM     30  C   UNL     1      -6.591  -0.653   7.872  1.00  0.00     0.000 C 
ENDBRANCH  22  25
ENDBRANCH   3  21
TORSDOF 4
