REMARK SMILES CCOc1c(Br)cc(Br)cc1C[NH2+]Cc1ccc(N2CCNC(=O)C2)cc1
REMARK SMILES IDX 12 1 11 2 4 3 5 4 7 5 6 6 10 7 8 8 9 9 3 10 2 11 1 12 13 13
REMARK SMILES IDX 14 16 15 17 27 18 16 19 26 20 17 21 18 22 19 23 25 24 20 25
REMARK SMILES IDX 23 26 21 27 22 28 24 29
REMARK H PARENT 13 14 13 15 22 30
REMARK Flexibility Score: inf
ROOT
ATOM      1  C   UNL     1       1.249   3.263   2.326  1.00  0.00     0.301 C 
ENDROOT
BRANCH   1   2
ATOM      2  C   UNL     1       0.803   1.985   2.990  1.00  0.00     0.050 A 
ATOM      3  C   UNL     1      -0.149   1.182   2.380  1.00  0.00     0.142 A 
ATOM      4  C   UNL     1      -0.561   0.008   2.995  1.00  0.00     0.061 A 
ATOM      5  C   UNL     1      -0.014  -0.363   4.210  1.00  0.00     0.035 A 
ATOM      6  Br  UNL     1      -1.864  -1.086   2.171  1.00  0.00    -0.047 Br
ATOM      7  C   UNL     1       1.343   1.613   4.206  1.00  0.00     0.029 A 
ATOM      8  C   UNL     1       0.936   0.440   4.816  1.00  0.00     0.019 A 
ATOM      9  Br  UNL     1       1.677  -0.066   6.480  1.00  0.00    -0.051 Br
BRANCH   3  10
ATOM     10  O   UNL     1      -0.682   1.547   1.184  1.00  0.00    -0.492 OA
BRANCH  10  11
ATOM     11  C   UNL     1      -0.013   1.086   0.008  1.00  0.00     0.226 C 
ATOM     12  C   UNL     1      -0.753   1.593  -1.232  1.00  0.00     0.049 C 
ENDBRANCH  10  11
ENDBRANCH   3  10
ENDBRANCH   1   2
BRANCH   1  13
ATOM     13  N   UNL     1       0.255   4.316   2.575  1.00  0.00    -0.339 N 
ATOM     14  H   UNL     1      -0.655   4.020   2.194  1.00  0.00     0.346 HD
ATOM     15  H   UNL     1       0.159   4.462   3.590  1.00  0.00     0.346 HD
BRANCH  13  16
ATOM     16  C   UNL     1       0.657   5.579   1.941  1.00  0.00     0.297 C 
BRANCH  16  17
ATOM     17  C   UNL     1      -0.385   6.633   2.217  1.00  0.00     0.006 A 
ATOM     18  C   UNL     1      -0.278   7.430   3.341  1.00  0.00     0.012 A 
ATOM     19  C   UNL     1      -1.442   6.804   1.342  1.00  0.00     0.012 A 
ATOM     20  C   UNL     1      -1.231   8.397   3.597  1.00  0.00     0.026 A 
ATOM     21  C   UNL     1      -2.401   7.765   1.594  1.00  0.00     0.026 A 
ATOM     22  C   UNL     1      -2.297   8.568   2.723  1.00  0.00     0.037 A 
BRANCH  22  23
ATOM     23  N   UNL     1      -3.262   9.544   2.979  1.00  0.00    -0.360 N 
ATOM     24  C   UNL     1      -2.646  10.870   3.120  1.00  0.00     0.216 C 
ATOM     25  C   UNL     1      -4.282   9.569   1.917  1.00  0.00     0.138 C 
ATOM     26  C   UNL     1      -3.712  11.922   3.240  1.00  0.00     0.239 C 
ATOM     27  C   UNL     1      -5.462  10.419   2.390  1.00  0.00     0.137 C 
ATOM     28  N   UNL     1      -4.984  11.706   2.888  1.00  0.00    -0.353 N 
ATOM     29  O   UNL     1      -3.406  13.012   3.673  1.00  0.00    -0.273 OA
ATOM     30  H   UNL     1      -5.657  12.481   2.973  1.00  0.00     0.163 HD
ENDBRANCH  22  23
ENDBRANCH  16  17
ENDBRANCH  13  16
ENDBRANCH   1  13
TORSDOF 7
