REMARK SMILES CCn1c(NNC(=O)[C@@H]2Cc3ccccc3S2)nc2ccccc2c1=O
REMARK SMILES IDX 5 1 4 3 3 4 25 5 18 6 26 7 24 8 19 9 23 10 20 11 22 12 21 13
REMARK SMILES IDX 2 14 1 15 6 16 7 17 8 19 9 20 17 21 10 22 16 23 11 24 15 25
REMARK SMILES IDX 12 26 14 27 13 28
REMARK H PARENT 5 2 6 18
REMARK Flexibility Score: inf
ROOT
ATOM      1  N   UNL     1       4.318   7.371   0.365  1.00  0.00    -0.267 N 
ATOM      2  H   UNL     1       4.109   7.465   1.369  1.00  0.00     0.191 HD
ENDROOT
BRANCH   1   3
ATOM      3  C   UNL     1       5.040   8.345  -0.279  1.00  0.00     0.225 A 
ATOM      4  N   UNL     1       5.460   9.426   0.440  1.00  0.00    -0.277 N 
ATOM      5  C   UNL     1       6.178  10.408  -0.151  1.00  0.00     0.262 A 
ATOM      6  N   UNL     1       5.288   8.195  -1.556  1.00  0.00    -0.213 NA
ATOM      7  O   UNL     1       6.563  11.375   0.480  1.00  0.00    -0.269 OA
ATOM      8  C   UNL     1       6.472  10.267  -1.584  1.00  0.00     0.066 A 
ATOM      9  C   UNL     1       5.994   9.118  -2.253  1.00  0.00     0.080 A 
ATOM     10  C   UNL     1       7.200  11.227  -2.285  1.00  0.00     0.016 A 
ATOM     11  C   UNL     1       6.260   8.961  -3.616  1.00  0.00     0.029 A 
ATOM     12  C   UNL     1       7.444  11.046  -3.618  1.00  0.00     0.001 A 
ATOM     13  C   UNL     1       6.976   9.918  -4.279  1.00  0.00     0.002 A 
BRANCH   4  14
ATOM     14  C   UNL     1       5.135   9.520   1.865  1.00  0.00     0.126 C 
ATOM     15  C   UNL     1       6.246   8.861   2.686  1.00  0.00     0.028 C 
ENDBRANCH   4  14
ENDBRANCH   1   3
BRANCH   1  16
ATOM     16  N   UNL     1       3.866   6.250  -0.344  1.00  0.00    -0.267 N 
ATOM     17  C   UNL     1       3.157   5.294   0.289  1.00  0.00     0.252 C 
ATOM     18  H   UNL     1       4.075   6.157  -1.348  1.00  0.00     0.191 HD
ATOM     19  O   UNL     1       2.911   5.404   1.471  1.00  0.00    -0.272 OA
BRANCH  17  20
ATOM     20  C   UNL     1       2.671   4.089  -0.473  1.00  0.00     0.147 C 
ATOM     21  S   UNL     1       3.674   2.596  -0.080  1.00  0.00    -0.112 SA
ATOM     22  C   UNL     1       1.293   3.614   0.042  1.00  0.00     0.061 C 
ATOM     23  C   UNL     1       2.363   1.395  -0.028  1.00  0.00     0.011 A 
ATOM     24  C   UNL     1       1.169   2.111   0.002  1.00  0.00    -0.033 A 
ATOM     25  C   UNL     1       2.386   0.012  -0.028  1.00  0.00     0.015 A 
ATOM     26  C   UNL     1      -0.017   1.372   0.010  1.00  0.00     0.005 A 
ATOM     27  C   UNL     1       1.199  -0.697  -0.013  1.00  0.00     0.001 A 
ATOM     28  C   UNL     1       0.002  -0.004   0.002  1.00  0.00     0.000 A 
ENDBRANCH  17  20
ENDBRANCH   1  16
TORSDOF 4
