REMARK SMILES COc1ccc2nc3cc(Cl)ccc3c(Nc3cc(C[NH+]4CCCC4)c(O)c(C[NH+]4CCCC4)c3)c2n1
REMARK SMILES IDX 17 1 18 2 19 3 26 4 28 5 35 6 16 7 15 9 3 10 37 11 4 12
REMARK SMILES IDX 36 13 5 14 6 15 7 16 14 17 8 18 13 19 9 20 12 21 10 22 11 23
REMARK SMILES IDX 2 24 1 25 29 26 30 27 31 28 34 29 32 31 33 32 20 33 21 34
REMARK SMILES IDX 22 35 25 36 23 38 24 39 27 40
REMARK H PARENT 16 8 30 30 21 37 27 41
REMARK Flexibility Score: inf
ROOT
ATOM      1  C   UNL     1       0.953  -1.413   0.569  1.00  0.00     0.040 A 
ATOM      2  C   UNL     1      -0.300  -1.041   1.040  1.00  0.00     0.039 A 
ATOM      3  C   UNL     1      -0.462  -0.691   2.365  1.00  0.00     0.051 A 
ATOM      4  C   UNL     1       0.625  -0.711   3.227  1.00  0.00     0.133 A 
ATOM      5  C   UNL     1       1.877  -1.082   2.757  1.00  0.00     0.051 A 
ATOM      6  C   UNL     1       2.041  -1.433   1.431  1.00  0.00     0.039 A 
ENDROOT
BRANCH   1   7
ATOM      7  N   UNL     1       1.118  -1.769  -0.774  1.00  0.00    -0.353 N 
ATOM      8  H   UNL     1       0.332  -1.673  -1.433  1.00  0.00     0.167 HD
BRANCH   7   9
ATOM      9  C   UNL     1       2.335  -2.248  -1.217  1.00  0.00     0.076 A 
ATOM     10  C   UNL     1       2.061  -5.758  -0.477  1.00  0.00     0.213 A 
ATOM     11  N   UNL     1       1.784  -4.479  -0.584  1.00  0.00    -0.210 NA
ATOM     12  C   UNL     1       3.287  -6.280  -0.915  1.00  0.00     0.071 A 
ATOM     13  C   UNL     1       2.663  -3.616  -1.109  1.00  0.00     0.117 A 
ATOM     14  C   UNL     1       4.219  -5.456  -1.465  1.00  0.00     0.036 A 
ATOM     15  C   UNL     1       3.918  -4.077  -1.579  1.00  0.00     0.092 A 
ATOM     16  N   UNL     1       4.811  -3.245  -2.113  1.00  0.00    -0.246 NA
ATOM     17  C   UNL     1       3.292  -1.387  -1.784  1.00  0.00     0.026 A 
ATOM     18  C   UNL     1       4.568  -1.944  -2.239  1.00  0.00     0.075 A 
ATOM     19  C   UNL     1       3.056  -0.009  -1.928  1.00  0.00     0.014 A 
ATOM     20  C   UNL     1       5.518  -1.072  -2.806  1.00  0.00     0.049 A 
ATOM     21  C   UNL     1       4.014   0.780  -2.483  1.00  0.00     0.021 A 
ATOM     22  C   UNL     1       5.231   0.253  -2.917  1.00  0.00     0.043 A 
ATOM     23  Cl  UNL     1       6.410   1.317  -3.618  1.00  0.00    -0.084 Cl
BRANCH  10  24
ATOM     24  O   UNL     1       1.141  -6.592   0.069  1.00  0.00    -0.481 OA
ATOM     25  C   UNL     1      -0.096  -6.011   0.485  1.00  0.00     0.280 C 
ENDBRANCH  10  24
ENDBRANCH   7   9
ENDBRANCH   1   7
BRANCH   5  26
ATOM     26  C   UNL     1       3.057  -1.103   3.693  1.00  0.00     0.303 C 
BRANCH  26  27
ATOM     27  N   UNL     1       2.983  -2.310   4.570  1.00  0.00    -0.331 N 
ATOM     28  C   UNL     1       2.802  -3.523   3.758  1.00  0.00     0.262 C 
ATOM     29  C   UNL     1       4.226  -2.471   5.325  1.00  0.00     0.262 C 
ATOM     30  H   UNL     1       2.186  -2.180   5.210  1.00  0.00     0.348 HD
ATOM     31  C   UNL     1       3.257  -4.641   4.729  1.00  0.00     0.067 C 
ATOM     32  C   UNL     1       4.441  -3.988   5.478  1.00  0.00     0.067 C 
ENDBRANCH  26  27
ENDBRANCH   5  26
BRANCH   3  33
ATOM     33  C   UNL     1      -1.820  -0.281   2.876  1.00  0.00     0.303 C 
BRANCH  33  34
ATOM     34  N   UNL     1      -1.903   1.209   2.944  1.00  0.00    -0.331 N 
ATOM     35  C   UNL     1      -1.507   1.804   1.658  1.00  0.00     0.262 C 
ATOM     36  C   UNL     1      -3.276   1.633   3.217  1.00  0.00     0.262 C 
ATOM     37  H   UNL     1      -1.272   1.520   3.697  1.00  0.00     0.348 HD
ATOM     38  C   UNL     1      -2.130   3.220   1.744  1.00  0.00     0.067 C 
ATOM     39  C   UNL     1      -3.471   2.964   2.469  1.00  0.00     0.067 C 
ENDBRANCH  33  34
ENDBRANCH   3  33
BRANCH   4  40
ATOM     40  O   UNL     1       0.465  -0.365   4.532  1.00  0.00    -0.507 OA
ATOM     41  H   UNL     1      -0.239  -0.973   4.872  1.00  0.00     0.293 HD
ENDBRANCH   4  40
TORSDOF 8
