REMARK SMILES CSc1ccc([C@H](C)NS(=O)(=O)c2c[nH]c(C(=O)N[C@H](C)c3ccc(SC)cc3)c2)cc1
REMARK SMILES IDX 16 1 30 2 13 3 14 4 15 5 17 7 19 8 18 10 20 11 21 12 22 13
REMARK SMILES IDX 29 14 23 15 28 16 24 17 25 18 26 19 27 20 10 21 11 22 12 23
REMARK SMILES IDX 9 24 7 26 8 27 6 28 31 29 5 30 32 31 4 32 3 33 2 34 1 35
REMARK H PARENT 15 6 19 9 9 25
REMARK Flexibility Score: inf
ROOT
ATOM      1  C   UNL     1       1.246   1.963   0.001  1.00  0.00     0.105 A 
ATOM      2  C   UNL     1       2.515   1.425  -0.009  1.00  0.00     0.055 A 
ATOM      3  C   UNL     1       3.415   2.495  -0.017  1.00  0.00     0.100 A 
ATOM      4  C   UNL     1       2.696   3.643  -0.003  1.00  0.00     0.104 A 
ATOM      5  N   UNL     1       1.377   3.334   0.007  1.00  0.00    -0.356 N 
ATOM      6  H   UNL     1       0.601   4.011   0.018  1.00  0.00     0.166 HD
ENDROOT
BRANCH   1   7
ATOM      7  C   UNL     1      -0.014   1.213   0.009  1.00  0.00     0.268 C 
ATOM      8  N   UNL     1      -1.191   1.871   0.018  1.00  0.00    -0.344 N 
ATOM      9  H   UNL     1      -1.205   2.901   0.024  1.00  0.00     0.164 HD
ATOM     10  O   UNL     1       0.002  -0.004   0.002  1.00  0.00    -0.268 OA
BRANCH   8  11
ATOM     11  C   UNL     1      -2.449   1.121   0.020  1.00  0.00     0.109 C 
ATOM     12  C   UNL     1      -2.830   0.760  -1.417  1.00  0.00     0.036 C 
BRANCH  11  13
ATOM     13  C   UNL     1      -3.537   1.967   0.630  1.00  0.00    -0.026 A 
ATOM     14  C   UNL     1      -4.467   1.390   1.475  1.00  0.00     0.007 A 
ATOM     15  C   UNL     1      -3.599   3.320   0.348  1.00  0.00     0.007 A 
ATOM     16  C   UNL     1      -5.465   2.162   2.036  1.00  0.00     0.015 A 
ATOM     17  C   UNL     1      -4.597   4.097   0.902  1.00  0.00     0.015 A 
ATOM     18  C   UNL     1      -5.534   3.521   1.751  1.00  0.00     0.007 A 
BRANCH  18  19
ATOM     19  S   UNL     1      -6.804   4.510   2.466  1.00  0.00    -0.130 SA
ATOM     20  C   UNL     1      -6.486   6.172   1.813  1.00  0.00     0.091 C 
ENDBRANCH  18  19
ENDBRANCH  11  13
ENDBRANCH   8  11
ENDBRANCH   1   7
BRANCH   3  21
ATOM     21  S   UNL     1       5.173   2.372  -0.034  1.00  0.00     0.242 S 
ATOM     22  O   UNL     1       5.486   1.104  -0.594  1.00  0.00    -0.207 OA
ATOM     23  O   UNL     1       5.660   3.589  -0.583  1.00  0.00    -0.207 OA
BRANCH  21  24
ATOM     24  N   UNL     1       5.676   2.329   1.543  1.00  0.00    -0.204 NA
ATOM     25  H   UNL     1       6.247   3.098   1.922  1.00  0.00     0.142 HD
BRANCH  24  26
ATOM     26  C   UNL     1       5.309   1.198   2.399  1.00  0.00     0.097 C 
ATOM     27  C   UNL     1       6.438   0.167   2.393  1.00  0.00     0.031 C 
BRANCH  26  28
ATOM     28  C   UNL     1       5.082   1.687   3.807  1.00  0.00    -0.030 A 
ATOM     29  C   UNL     1       4.039   1.173   4.556  1.00  0.00     0.006 A 
ATOM     30  C   UNL     1       5.921   2.643   4.348  1.00  0.00     0.006 A 
ATOM     31  C   UNL     1       3.829   1.617   5.846  1.00  0.00     0.015 A 
ATOM     32  C   UNL     1       5.713   3.097   5.636  1.00  0.00     0.015 A 
ATOM     33  C   UNL     1       4.667   2.582   6.392  1.00  0.00     0.007 A 
BRANCH  33  34
ATOM     34  S   UNL     1       4.402   3.152   8.038  1.00  0.00    -0.130 SA
ATOM     35  C   UNL     1       5.715   4.377   8.294  1.00  0.00     0.091 C 
ENDBRANCH  33  34
ENDBRANCH  26  28
ENDBRANCH  24  26
ENDBRANCH  21  24
ENDBRANCH   3  21
TORSDOF 9
