REMARK SMILES Cc1c(O[C@H](C)C(=O)N[C@H](Cc2c[nH]c3ccc(O)cc23)C(=O)[O-])ccc2c3c(c(=O)oc12)CCCC3
REMARK SMILES IDX 7 1 8 2 9 3 5 5 6 6 4 7 3 8 1 9 2 10 33 11 27 12 32 13 25 14
REMARK SMILES IDX 26 15 28 16 30 17 29 18 37 19 31 20 34 21 36 22 35 23 10 24
REMARK SMILES IDX 11 25 12 26 21 27 13 28 15 29 20 30 14 31 16 32 18 33 17 35
REMARK SMILES IDX 19 36 22 38 23 39 24 40
REMARK H PARENT 9 4 14 34 19 37
REMARK Flexibility Score: inf
ROOT
ATOM      1  C   UNL     1       3.387   3.405  -1.173  1.00  0.00     0.261 C 
ATOM      2  O   UNL     1       2.908   2.990  -2.207  1.00  0.00    -0.271 OA
ATOM      3  N   UNL     1       2.719   3.253  -0.012  1.00  0.00    -0.345 N 
ATOM      4  H   UNL     1       3.126   3.604   0.866  1.00  0.00     0.164 HD
ENDROOT
BRANCH   1   5
ATOM      5  C   UNL     1       4.729   4.090  -1.186  1.00  0.00     0.258 C 
ATOM      6  C   UNL     1       5.737   3.251  -0.399  1.00  0.00     0.064 C 
BRANCH   5   7
ATOM      7  O   UNL     1       5.178   4.233  -2.535  1.00  0.00    -0.480 OA
BRANCH   7   8
ATOM      8  C   UNL     1       6.058   5.235  -2.789  1.00  0.00     0.127 A 
ATOM      9  C   UNL     1       5.898   4.665  -5.225  1.00  0.00     0.052 C 
ATOM     10  C   UNL     1       6.448   5.493  -4.093  1.00  0.00     0.035 A 
ATOM     11  C   UNL     1       7.343   6.519  -4.352  1.00  0.00     0.145 A 
ATOM     12  C   UNL     1       7.852   7.280  -3.285  1.00  0.00     0.022 A 
ATOM     13  O   UNL     1       7.735   6.794  -5.614  1.00  0.00    -0.422 OA
ATOM     14  C   UNL     1       6.566   5.992  -1.735  1.00  0.00     0.047 A 
ATOM     15  C   UNL     1       7.452   7.003  -1.973  1.00  0.00     0.016 A 
ATOM     16  C   UNL     1       8.803   8.364  -3.566  1.00  0.00    -0.027 A 
ATOM     17  C   UNL     1       8.606   7.778  -5.875  1.00  0.00     0.339 A 
ATOM     18  C   UNL     1       9.162   8.584  -4.850  1.00  0.00     0.042 A 
ATOM     19  C   UNL     1       9.324   9.179  -2.415  1.00  0.00     0.037 C 
ATOM     20  O   UNL     1       8.930   7.988  -7.030  1.00  0.00    -0.246 OA
ATOM     21  C   UNL     1      10.143   9.654  -5.247  1.00  0.00     0.043 C 
ATOM     22  C   UNL     1      10.585   9.941  -2.821  1.00  0.00     0.005 C 
ATOM     23  C   UNL     1      10.296  10.686  -4.130  1.00  0.00     0.005 C 
ENDBRANCH   7   8
ENDBRANCH   5   7
ENDBRANCH   1   5
BRANCH   3  24
ATOM     24  C   UNL     1       1.414   2.586   0.000  1.00  0.00     0.132 C 
BRANCH  24  25
ATOM     25  C   UNL     1       0.609   3.064   1.211  1.00  0.00     0.069 C 
BRANCH  25  26
ATOM     26  C   UNL     1       0.305   4.533   1.064  1.00  0.00    -0.020 A 
ATOM     27  C   UNL     1      -0.817   5.121   0.330  1.00  0.00     0.006 A 
ATOM     28  C   UNL     1       1.009   5.550   1.586  1.00  0.00     0.087 A 
ATOM     29  C   UNL     1      -0.688   6.514   0.472  1.00  0.00     0.046 A 
ATOM     30  C   UNL     1      -1.878   4.590  -0.407  1.00  0.00     0.056 A 
ATOM     31  N   UNL     1       0.435   6.742   1.239  1.00  0.00    -0.361 N 
ATOM     32  C   UNL     1      -1.623   7.354  -0.125  1.00  0.00     0.030 A 
ATOM     33  C   UNL     1      -2.796   5.440  -0.992  1.00  0.00     0.116 A 
ATOM     34  H   UNL     1       0.789   7.670   1.510  1.00  0.00     0.166 HD
ATOM     35  C   UNL     1      -2.665   6.819  -0.849  1.00  0.00     0.048 A 
BRANCH  33  36
ATOM     36  O   UNL     1      -3.831   4.929  -1.710  1.00  0.00    -0.508 OA
ATOM     37  H   UNL     1      -4.296   4.316  -1.088  1.00  0.00     0.293 HD
ENDBRANCH  33  36
ENDBRANCH  25  26
ENDBRANCH  24  25
BRANCH  24  38
ATOM     38  C   UNL     1       1.613   1.095   0.086  1.00  0.00     0.064 C 
ATOM     39  O   UNL     1       2.729   0.636   0.132  1.00  0.00    -0.548 OA
ATOM     40  O   UNL     1       0.549   0.277   0.111  1.00  0.00    -0.548 OA
ENDBRANCH  24  38
ENDBRANCH   3  24
TORSDOF 8
