REMARK SMILES COc1ccc(N2CC[NH+](CCCNC(=O)c3cccc4c5c([nH]c34)CC[C@H](C)C5)CC2)cc1
REMARK SMILES IDX 12 1 13 2 14 3 15 4 16 5 17 7 29 8 28 9 30 10 27 11 22 12
REMARK SMILES IDX 26 13 23 14 21 15 24 16 25 17 20 18 19 20 18 21 11 22 10 23
REMARK SMILES IDX 31 24 9 25 32 27 8 28 7 29 6 30 33 31 5 32 34 33 4 34 3 35
REMARK SMILES IDX 2 36 1 37
REMARK H PARENT 14 6 24 19 10 26
REMARK Flexibility Score: inf
ROOT
ATOM      1  C   UNL     1       4.225   0.279   2.456  1.00  0.00     0.083 C 
ENDROOT
BRANCH   1   2
ATOM      2  C   UNL     1       5.040  -0.265   3.631  1.00  0.00     0.122 C 
BRANCH   2   3
ATOM      3  N   UNL     1       6.304   0.469   3.731  1.00  0.00    -0.352 N 
ATOM      4  C   UNL     1       7.188   0.160   4.700  1.00  0.00     0.253 C 
ATOM      5  O   UNL     1       6.937  -0.728   5.491  1.00  0.00    -0.269 OA
ATOM      6  H   UNL     1       6.516   1.222   3.060  1.00  0.00     0.163 HD
BRANCH   4   7
ATOM      7  C   UNL     1       8.461   0.899   4.800  1.00  0.00     0.063 A 
ATOM      8  C   UNL     1      14.423   0.499   9.222  1.00  0.00     0.008 C 
ATOM      9  C   UNL     1      13.183   0.014   8.468  1.00  0.00    -0.009 C 
ATOM     10  C   UNL     1      12.673   1.130   7.548  1.00  0.00     0.041 C 
ATOM     11  C   UNL     1      12.088  -0.358   9.471  1.00  0.00     0.010 C 
ATOM     12  C   UNL     1      11.319   0.732   7.021  1.00  0.00    -0.019 A 
ATOM     13  C   UNL     1      10.946  -1.073   8.740  1.00  0.00     0.054 C 
ATOM     14  C   UNL     1      10.549  -0.243   7.541  1.00  0.00     0.019 A 
ATOM     15  C   UNL     1      10.595   1.297   5.886  1.00  0.00     0.004 A 
ATOM     16  N   UNL     1       9.391  -0.343   6.822  1.00  0.00    -0.358 N 
ATOM     17  C   UNL     1       9.386   0.581   5.808  1.00  0.00     0.059 A 
ATOM     18  C   UNL     1      10.862   2.313   4.966  1.00  0.00     0.010 A 
ATOM     19  H   UNL     1       8.633  -1.014   7.014  1.00  0.00     0.166 HD
ATOM     20  C   UNL     1       9.944   2.614   3.983  1.00  0.00     0.002 A 
ATOM     21  C   UNL     1       8.755   1.914   3.891  1.00  0.00     0.016 A 
ENDBRANCH   4   7
ENDBRANCH   2   3
ENDBRANCH   1   2
BRANCH   1  22
ATOM     22  C   UNL     1       2.905  -0.488   2.352  1.00  0.00     0.264 C 
BRANCH  22  23
ATOM     23  N   UNL     1       2.123   0.034   1.224  1.00  0.00    -0.332 N 
ATOM     24  C   UNL     1       2.103   1.504   1.232  1.00  0.00     0.283 C 
ATOM     25  C   UNL     1       0.757  -0.508   1.234  1.00  0.00     0.283 C 
ATOM     26  H   UNL     1       2.581  -0.273   0.354  1.00  0.00     0.348 HD
ATOM     27  C   UNL     1       1.348   2.008   0.000  1.00  0.00     0.178 C 
ATOM     28  C   UNL     1       0.002  -0.004   0.002  1.00  0.00     0.178 C 
ATOM     29  N   UNL     1      -0.018   1.465   0.010  1.00  0.00    -0.360 N 
BRANCH  29  30
ATOM     30  C   UNL     1      -0.763   1.963  -1.065  1.00  0.00     0.037 A 
ATOM     31  C   UNL     1      -0.905   3.333  -1.237  1.00  0.00     0.030 A 
ATOM     32  C   UNL     1      -1.356   1.086  -1.964  1.00  0.00     0.030 A 
ATOM     33  C   UNL     1      -1.640   3.823  -2.298  1.00  0.00     0.048 A 
ATOM     34  C   UNL     1      -2.096   1.578  -3.021  1.00  0.00     0.048 A 
ATOM     35  C   UNL     1      -2.237   2.947  -3.192  1.00  0.00     0.119 A 
BRANCH  35  36
ATOM     36  O   UNL     1      -2.961   3.430  -4.237  1.00  0.00    -0.497 OA
ATOM     37  C   UNL     1      -3.548   2.471  -5.119  1.00  0.00     0.278 C 
ENDBRANCH  35  36
ENDBRANCH  29  30
ENDBRANCH  22  23
ENDBRANCH   1  22
TORSDOF 7
