REMARK SMILES CO[C@H]1[C@H](NC(=O)c2ccco2)c2ccccc2C12CC[NH+](Cc1[nH]c3c(C)cccc3c1C)CC2
REMARK SMILES IDX 21 1 20 2 19 3 36 4 35 5 18 6 17 7 16 8 15 9 14 10 13 11
REMARK SMILES IDX 4 12 3 13 22 14 23 16 24 17 28 18 27 19 26 20 29 21 32 22
REMARK SMILES IDX 25 23 30 24 31 25 33 26 34 28 2 29 1 30 5 31 6 32 7 34 8 35
REMARK SMILES IDX 12 36 9 37 11 38 10 39
REMARK H PARENT 22 15 25 27 5 33
REMARK Flexibility Score: inf
ROOT
ATOM      1  C   UNL     1      -0.443   7.535   0.999  1.00  0.00     0.263 C 
ATOM      2  C   UNL     1      -0.706   6.027   1.034  1.00  0.00     0.076 C 
ATOM      3  C   UNL     1       0.208   5.333   0.028  1.00  0.00     0.035 C 
ATOM      4  C   UNL     1      -0.004   5.915  -1.367  1.00  0.00     0.076 C 
ATOM      5  C   UNL     1       0.237   7.427  -1.326  1.00  0.00     0.263 C 
ATOM      6  C   UNL     1      -0.047   3.845   0.022  1.00  0.00    -0.033 A 
ATOM      7  C   UNL     1      -1.235   3.132   0.029  1.00  0.00     0.005 A 
ATOM      8  C   UNL     1      -1.219   1.752   0.017  1.00  0.00     0.000 A 
ATOM      9  C   UNL     1      -0.013   1.076   0.008  1.00  0.00     0.000 A 
ATOM     10  C   UNL     1       1.173   1.784   0.000  1.00  0.00     0.006 A 
ATOM     11  C   UNL     1       1.160   3.168   0.007  1.00  0.00    -0.019 A 
ATOM     12  C   UNL     1       2.303   4.160   0.001  1.00  0.00     0.143 C 
ATOM     13  C   UNL     1       1.679   5.500   0.449  1.00  0.00     0.155 C 
ATOM     14  N   UNL     1      -0.710   8.036  -0.367  1.00  0.00    -0.330 N 
ATOM     15  H   UNL     1      -1.670   7.775  -0.636  1.00  0.00     0.348 HD
ENDROOT
BRANCH  14  16
ATOM     16  C   UNL     1      -0.583   9.507  -0.398  1.00  0.00     0.317 C 
BRANCH  16  17
ATOM     17  C   UNL     1      -0.588   9.973  -1.831  1.00  0.00     0.074 A 
ATOM     18  C   UNL     1       2.378  11.276  -4.856  1.00  0.00     0.046 C 
ATOM     19  C   UNL     1       0.879  11.138  -4.930  1.00  0.00    -0.027 A 
ATOM     20  C   UNL     1       0.163  10.700  -3.821  1.00  0.00     0.049 A 
ATOM     21  C   UNL     1       0.213  11.445  -6.096  1.00  0.00     0.005 A 
ATOM     22  C   UNL     1      -1.236  10.577  -3.908  1.00  0.00     0.003 A 
ATOM     23  N   UNL     1       0.524  10.331  -2.544  1.00  0.00    -0.353 N 
ATOM     24  C   UNL     1      -1.167  11.322  -6.177  1.00  0.00     0.001 A 
ATOM     25  C   UNL     1      -1.890  10.894  -5.100  1.00  0.00     0.010 A 
ATOM     26  C   UNL     1      -1.683  10.102  -2.596  1.00  0.00    -0.017 A 
ATOM     27  H   UNL     1       1.488  10.325  -2.180  1.00  0.00     0.166 HD
ATOM     28  C   UNL     1      -3.104   9.815  -2.183  1.00  0.00     0.047 C 
ENDBRANCH  16  17
ENDBRANCH  14  16
BRANCH  13  29
ATOM     29  O   UNL     1       1.787   5.663   1.865  1.00  0.00    -0.378 OA
ATOM     30  C   UNL     1       2.970   6.348   2.283  1.00  0.00     0.195 C 
ENDBRANCH  13  29
BRANCH  12  31
ATOM     31  N   UNL     1       2.860   4.285  -1.348  1.00  0.00    -0.340 N 
ATOM     32  C   UNL     1       3.817   3.433  -1.764  1.00  0.00     0.287 C 
ATOM     33  H   UNL     1       2.520   5.025  -1.979  1.00  0.00     0.164 HD
ATOM     34  O   UNL     1       4.219   2.559  -1.018  1.00  0.00    -0.266 OA
BRANCH  32  35
ATOM     35  C   UNL     1       4.375   3.558  -3.115  1.00  0.00     0.191 A 
ATOM     36  O   UNL     1       4.021   4.477  -4.036  1.00  0.00    -0.459 OA
ATOM     37  C   UNL     1       5.348   2.768  -3.658  1.00  0.00     0.056 A 
ATOM     38  C   UNL     1       4.739   4.289  -5.151  1.00  0.00     0.196 A 
ATOM     39  C   UNL     1       5.570   3.240  -4.961  1.00  0.00     0.043 A 
ENDBRANCH  32  35
ENDBRANCH  12  31
TORSDOF 5
