REMARK SMILES CC[N@H+]1CCC[C@@H]1CN(Cc1cc2ccc(C)c(C)c2[nH]c1=O)C(=O)Nc1ccc(Cl)cc1
REMARK SMILES IDX 8 1 7 2 3 3 4 4 5 6 6 7 2 8 1 9 9 10 10 11 11 12 22 13 12 14
REMARK SMILES IDX 21 15 23 16 13 17 20 18 14 20 18 21 15 22 16 23 19 24 17 25
REMARK SMILES IDX 24 26 25 27 26 28 27 30 33 31 28 32 32 33 29 34 30 35 31 36
REMARK H PARENT 3 5 21 19 26 29
REMARK Flexibility Score: inf
ROOT
ATOM      1  C   UNL     1      -3.653  -2.299  -1.893  1.00  0.00     0.186 C 
ENDROOT
BRANCH   1   2
ATOM      2  C   UNL     1      -5.133  -2.103  -1.559  1.00  0.00     0.204 C 
ATOM      3  N   UNL     1      -5.870  -3.347  -1.776  1.00  0.00    -0.331 N 
ATOM      4  C   UNL     1      -7.208  -2.983  -2.275  1.00  0.00     0.262 C 
ATOM      5  H   UNL     1      -5.381  -3.945  -2.457  1.00  0.00     0.348 HD
ATOM      6  C   UNL     1      -6.895  -1.810  -3.237  1.00  0.00     0.068 C 
ATOM      7  C   UNL     1      -5.753  -1.063  -2.511  1.00  0.00     0.073 C 
BRANCH   3   8
ATOM      8  C   UNL     1      -5.979  -4.119  -0.498  1.00  0.00     0.259 C 
ATOM      9  C   UNL     1      -6.833  -5.369  -0.721  1.00  0.00     0.071 C 
ENDBRANCH   3   8
ENDBRANCH   1   2
BRANCH   1  10
ATOM     10  N   UNL     1      -3.092  -3.344  -1.032  1.00  0.00    -0.314 N 
BRANCH  10  11
ATOM     11  C   UNL     1      -2.611  -3.007   0.310  1.00  0.00     0.163 C 
BRANCH  11  12
ATOM     12  C   UNL     1      -1.196  -2.497   0.222  1.00  0.00     0.037 A 
ATOM     13  C   UNL     1      -0.120  -3.410   0.185  1.00  0.00     0.253 A 
ATOM     14  C   UNL     1      -0.960  -1.162   0.179  1.00  0.00     0.021 A 
ATOM     15  N   UNL     1       1.156  -2.995   0.107  1.00  0.00    -0.321 N 
ATOM     16  O   UNL     1      -0.354  -4.606   0.225  1.00  0.00    -0.269 OA
ATOM     17  C   UNL     1       0.427  -0.700   0.094  1.00  0.00    -0.001 A 
ATOM     18  C   UNL     1       1.463  -1.652   0.060  1.00  0.00     0.051 A 
ATOM     19  H   UNL     1       1.916  -3.690   0.082  1.00  0.00     0.170 HD
ATOM     20  C   UNL     1       0.733   0.665   0.047  1.00  0.00     0.010 A 
ATOM     21  C   UNL     1       2.783  -1.221  -0.020  1.00  0.00    -0.024 A 
ATOM     22  C   UNL     1       2.037   1.064  -0.031  1.00  0.00     0.004 A 
ATOM     23  C   UNL     1       3.061   0.128  -0.066  1.00  0.00    -0.046 A 
ATOM     24  C   UNL     1       3.906  -2.227  -0.057  1.00  0.00     0.047 C 
ATOM     25  C   UNL     1       4.492   0.592  -0.153  1.00  0.00     0.044 C 
ENDBRANCH  11  12
ENDBRANCH  10  11
BRANCH  10  26
ATOM     26  C   UNL     1      -3.020  -4.614  -1.475  1.00  0.00     0.322 C 
ATOM     27  O   UNL     1      -2.555  -5.481  -0.761  1.00  0.00    -0.248 OA
ATOM     28  N   UNL     1      -3.463  -4.924  -2.710  1.00  0.00    -0.308 N 
ATOM     29  H   UNL     1      -3.932  -4.209  -3.283  1.00  0.00     0.171 HD
BRANCH  28  30
ATOM     30  C   UNL     1      -3.286  -6.219  -3.212  1.00  0.00     0.042 A 
ATOM     31  C   UNL     1      -4.236  -6.771  -4.062  1.00  0.00     0.028 A 
ATOM     32  C   UNL     1      -2.157  -6.951  -2.867  1.00  0.00     0.028 A 
ATOM     33  C   UNL     1      -4.058  -8.048  -4.557  1.00  0.00     0.022 A 
ATOM     34  C   UNL     1      -1.988  -8.229  -3.361  1.00  0.00     0.022 A 
ATOM     35  C   UNL     1      -2.935  -8.777  -4.207  1.00  0.00     0.041 A 
ATOM     36  Cl  UNL     1      -2.715 -10.382  -4.831  1.00  0.00    -0.084 Cl
ENDBRANCH  28  30
ENDBRANCH  10  26
ENDBRANCH   1  10
TORSDOF 7
