REMARK SMILES CCOc1cc([C@H]2C(C(=O)OCCc3ccccc3)=C(C)NC3=C2C(=O)CC(C)(C)C3)cc(Cl)c1O
REMARK SMILES IDX 9 1 10 2 8 3 7 4 24 5 20 6 25 7 23 8 22 9 21 10 27 11 26 12
REMARK SMILES IDX 31 13 28 15 29 16 30 17 6 18 4 19 35 20 5 21 33 22 32 23
REMARK SMILES IDX 34 24 3 25 2 26 1 27 36 28 11 30 12 31 13 32 14 33 19 34
REMARK SMILES IDX 15 35 18 36 16 37 17 38
REMARK H PARENT 22 14 36 29
REMARK Flexibility Score: inf
ROOT
ATOM      1  C   UNL     1       5.920  -1.926  -2.712  1.00  0.00     0.336 C 
ATOM      2  O   UNL     1       5.337  -1.588  -3.725  1.00  0.00    -0.246 OA
ENDROOT
BRANCH   1   3
ATOM      3  C   UNL     1       7.148  -2.622  -2.801  1.00  0.00     0.068 C 
ATOM      4  C   UNL     1       7.917  -2.921  -1.547  1.00  0.00     0.094 C 
ATOM      5  C   UNL     1       8.935  -4.008  -1.784  1.00  0.00     0.027 C 
ATOM      6  C   UNL     1       7.602  -3.007  -4.006  1.00  0.00     0.023 C 
ATOM      7  C   UNL     1       9.467  -4.675  -0.667  1.00  0.00     0.162 C 
ATOM      8  C   UNL     1       9.322  -4.329  -3.037  1.00  0.00     0.023 C 
ATOM      9  N   UNL     1       8.786  -3.682  -4.117  1.00  0.00    -0.362 N 
ATOM     10  C   UNL     1       6.803  -2.687  -5.243  1.00  0.00     0.065 C 
ATOM     11  C   UNL     1      10.476  -5.779  -0.826  1.00  0.00     0.087 C 
ATOM     12  O   UNL     1       9.104  -4.355   0.448  1.00  0.00    -0.294 OA
ATOM     13  C   UNL     1      10.350  -5.406  -3.280  1.00  0.00     0.061 C 
ATOM     14  H   UNL     1       9.278  -3.704  -5.022  1.00  0.00     0.166 HD
ATOM     15  C   UNL     1      10.257  -6.464  -2.179  1.00  0.00    -0.023 C 
ATOM     16  C   UNL     1       8.872  -7.114  -2.207  1.00  0.00     0.012 C 
ATOM     17  C   UNL     1      11.330  -7.532  -2.399  1.00  0.00     0.012 C 
BRANCH   4  18
ATOM     18  C   UNL     1       8.624  -1.671  -1.090  1.00  0.00    -0.030 A 
ATOM     19  C   UNL     1       8.997   0.011   0.577  1.00  0.00     0.162 A 
ATOM     20  C   UNL     1       9.927   0.627  -0.255  1.00  0.00     0.176 A 
ATOM     21  C   UNL     1       8.344  -1.135   0.152  1.00  0.00     0.055 A 
ATOM     22  C   UNL     1      10.200   0.088  -1.503  1.00  0.00     0.087 A 
ATOM     23  C   UNL     1       9.548  -1.060  -1.918  1.00  0.00     0.029 A 
ATOM     24  Cl  UNL     1      11.359   0.853  -2.544  1.00  0.00    -0.080 Cl
BRANCH  19  25
ATOM     25  O   UNL     1       8.725   0.536   1.802  1.00  0.00    -0.490 OA
BRANCH  25  26
ATOM     26  C   UNL     1       7.760  -0.149   2.602  1.00  0.00     0.226 C 
ATOM     27  C   UNL     1       7.588   0.584   3.934  1.00  0.00     0.049 C 
ENDBRANCH  25  26
ENDBRANCH  19  25
BRANCH  20  28
ATOM     28  O   UNL     1      10.566   1.755   0.155  1.00  0.00    -0.503 OA
ATOM     29  H   UNL     1      10.999   1.506   1.010  1.00  0.00     0.293 HD
ENDBRANCH  20  28
ENDBRANCH   4  18
ENDBRANCH   1   3
BRANCH   1  30
ATOM     30  O   UNL     1       5.394  -1.637  -1.503  1.00  0.00    -0.462 OA
BRANCH  30  31
ATOM     31  C   UNL     1       4.151  -0.933  -1.488  1.00  0.00     0.238 C 
BRANCH  31  32
ATOM     32  C   UNL     1       3.715  -0.697  -0.040  1.00  0.00     0.077 C 
BRANCH  32  33
ATOM     33  C   UNL     1       2.404   0.046  -0.024  1.00  0.00    -0.045 A 
ATOM     34  C   UNL     1       2.393   1.428  -0.009  1.00  0.00     0.004 A 
ATOM     35  C   UNL     1       1.213  -0.655  -0.025  1.00  0.00     0.004 A 
ATOM     36  C   UNL     1       1.191   2.110   0.006  1.00  0.00     0.000 A 
ATOM     37  C   UNL     1       0.010   0.027  -0.010  1.00  0.00     0.000 A 
ATOM     38  C   UNL     1      -0.001   1.409   0.005  1.00  0.00     0.000 A 
ENDBRANCH  32  33
ENDBRANCH  31  32
ENDBRANCH  30  31
ENDBRANCH   1  30
TORSDOF 9
