REMARK SMILES Cc1cccc(C(=O)N2CCCN(CC(=O)NC3c4ccccc4-c4ccccc43)CC2)c1
REMARK SMILES IDX 31 1 32 2 9 3 7 4 8 5 6 6 1 7 2 8 33 9 3 10 4 11 5 12 10 13
REMARK SMILES IDX 13 15 12 16 11 17 14 19 15 20 16 21 17 22 18 24 30 25 19 26
REMARK SMILES IDX 25 27 29 28 24 29 20 30 26 31 28 32 23 33 21 34 27 35 22 36
REMARK H PARENT 17 23
REMARK Flexibility Score: 90.00
ROOT
ATOM      1  C   UNL     1       5.373   4.347  -1.228  1.00  0.00     0.106 C 
ENDROOT
BRANCH   1   2
ATOM      2  C   UNL     1       4.817   4.064   0.189  1.00  0.00     0.135 C 
BRANCH   2   3
ATOM      3  N   UNL     1       3.598   3.287   0.088  1.00  0.00    -0.337 N 
BRANCH   3   4
ATOM      4  C   UNL     1       2.420   3.937   0.000  1.00  0.00     0.253 C 
ATOM      5  O   UNL     1       2.401   5.149  -0.099  1.00  0.00    -0.269 OA
BRANCH   4   6
ATOM      6  C   UNL     1       1.152   3.177   0.025  1.00  0.00     0.040 A 
ATOM      7  C   UNL     1      -2.233   3.247  -1.666  1.00  0.00     0.044 C 
ATOM      8  C   UNL     1      -1.088   2.841  -0.774  1.00  0.00    -0.050 A 
ATOM      9  C   UNL     1       0.093   3.555  -0.802  1.00  0.00     0.017 A 
ATOM     10  C   UNL     1      -1.221   1.751   0.067  1.00  0.00     0.003 A 
ATOM     11  C   UNL     1      -0.176   1.375   0.893  1.00  0.00     0.001 A 
ATOM     12  C   UNL     1       1.010   2.079   0.874  1.00  0.00     0.014 A 
ENDBRANCH   4   6
ENDBRANCH   3   4
BRANCH   3  13
ATOM     13  C   UNL     1       3.595   1.811   0.084  1.00  0.00     0.121 CG0
ATOM     14  G   UNL     1       4.737   1.257  -0.792  1.00  0.00     0.000 G0
ENDBRANCH   3  13
ENDBRANCH   2   3
ENDBRANCH   1   2
BRANCH   1  15
ATOM     15  N   UNL     1       5.861   3.151  -1.804  1.00  0.00    -0.293 NA
BRANCH  15  16
ATOM     16  C   UNL     1       4.876   2.097  -2.042  1.00  0.00     0.087 C 
BRANCH  16  17
ATOM     17  C   UNL     1       4.737   1.257  -0.792  1.00  0.00     0.037 CG0
ATOM     18  G   UNL     1       3.595   1.811   0.084  1.00  0.00     0.000 G0
ENDBRANCH  16  17
ENDBRANCH  15  16
BRANCH  15  19
ATOM     19  C   UNL     1       6.638   3.430  -3.018  1.00  0.00     0.184 C 
BRANCH  19  20
ATOM     20  C   UNL     1       5.727   3.993  -4.079  1.00  0.00     0.234 C 
ATOM     21  O   UNL     1       4.547   4.147  -3.846  1.00  0.00    -0.274 OA
ATOM     22  N   UNL     1       6.225   4.327  -5.286  1.00  0.00    -0.344 N 
ATOM     23  H   UNL     1       7.227   4.196  -5.484  1.00  0.00     0.164 HD
BRANCH  22  24
ATOM     24  C   UNL     1       5.340   4.874  -6.317  1.00  0.00     0.144 C 
ATOM     25  C   UNL     1       6.132   5.711  -7.291  1.00  0.00    -0.013 A 
ATOM     26  C   UNL     1       4.732   3.755  -7.128  1.00  0.00    -0.013 A 
ATOM     27  C   UNL     1       5.996   5.132  -8.550  1.00  0.00    -0.012 A 
ATOM     28  C   UNL     1       6.892   6.850  -7.128  1.00  0.00     0.007 A 
ATOM     29  C   UNL     1       5.134   3.928  -8.449  1.00  0.00    -0.012 A 
ATOM     30  C   UNL     1       3.919   2.696  -6.781  1.00  0.00     0.007 A 
ATOM     31  C   UNL     1       6.637   5.715  -9.644  1.00  0.00     0.009 A 
ATOM     32  C   UNL     1       7.525   7.422  -8.218  1.00  0.00     0.000 A 
ATOM     33  C   UNL     1       4.707   3.019  -9.419  1.00  0.00     0.009 A 
ATOM     34  C   UNL     1       3.500   1.800  -7.748  1.00  0.00     0.000 A 
ATOM     35  C   UNL     1       7.396   6.854  -9.472  1.00  0.00     0.001 A 
ATOM     36  C   UNL     1       3.894   1.963  -9.063  1.00  0.00     0.001 A 
ENDBRANCH  22  24
ENDBRANCH  19  20
ENDBRANCH  15  19
ENDBRANCH   1  15
TORSDOF 5
