REMARK SMILES C[N@H+]1CC[C@]23c4c5ccc(Oc6nnnn6-c6ccccc6)c4O[C@@H]2c2[nH]c4ccccc4c2C[C@]3(O)[C@H]1C5
REMARK SMILES IDX 11 1 10 2 1 3 2 4 38 5 3 6 36 8 39 9 4 10 5 11 35 12 7 13
REMARK SMILES IDX 25 14 6 15 34 16 8 17 24 18 26 19 23 20 33 21 9 22 27 23
REMARK SMILES IDX 28 24 32 25 29 27 31 28 30 29 37 30 12 32 16 33 13 34 15 35
REMARK SMILES IDX 14 36 17 37 22 38 18 39 21 40 19 41 20 42
REMARK H PARENT 2 7 27 26 37 31
REMARK Flexibility Score: inf
ROOT
ATOM      1  O   UNL     1       2.066  -1.342  -0.844  1.00  0.00    -0.419 OA
ENDROOT
BRANCH   1   2
ATOM      2  C   UNL     1       3.406  -1.574  -0.837  1.00  0.00     0.173 A 
ATOM      3  C   UNL     1       9.337  -3.528   1.127  1.00  0.00     0.333 C 
ATOM      4  N   UNL     1       8.173  -4.225   0.564  1.00  0.00    -0.332 N 
ATOM      5  C   UNL     1       7.971  -3.858  -0.848  1.00  0.00     0.221 C 
ATOM      6  C   UNL     1       6.988  -4.026   1.400  1.00  0.00     0.263 C 
ATOM      7  H   UNL     1       8.356  -5.238   0.569  1.00  0.00     0.348 HD
ATOM      8  C   UNL     1       6.870  -4.741  -1.429  1.00  0.00     0.134 C 
ATOM      9  C   UNL     1       7.687  -2.360  -0.959  1.00  0.00     0.104 C 
ATOM     10  C   UNL     1       5.799  -4.822   0.834  1.00  0.00     0.081 C 
ATOM     11  C   UNL     1       5.626  -4.412  -0.615  1.00  0.00     0.082 C 
ATOM     12  C   UNL     1       7.093  -6.242  -1.244  1.00  0.00     0.081 C 
ATOM     13  C   UNL     1       6.252  -1.965  -0.861  1.00  0.00    -0.034 A 
ATOM     14  C   UNL     1       4.367  -4.977  -1.298  1.00  0.00     0.234 C 
ATOM     15  C   UNL     1       5.313  -2.959  -0.731  1.00  0.00     0.015 A 
ATOM     16  C   UNL     1       5.776  -6.987  -1.176  1.00  0.00    -0.012 A 
ATOM     17  C   UNL     1       5.710  -0.695  -0.929  1.00  0.00     0.008 A 
ATOM     18  O   UNL     1       3.379  -4.127  -0.748  1.00  0.00    -0.479 OA
ATOM     19  C   UNL     1       4.519  -6.439  -1.171  1.00  0.00     0.061 A 
ATOM     20  C   UNL     1       3.924  -2.864  -0.750  1.00  0.00     0.167 A 
ATOM     21  C   UNL     1       5.591  -8.422  -1.065  1.00  0.00     0.003 A 
ATOM     22  C   UNL     1       4.331  -0.530  -0.910  1.00  0.00     0.051 A 
ATOM     23  N   UNL     1       3.584  -7.423  -1.041  1.00  0.00    -0.355 N 
ATOM     24  C   UNL     1       4.194  -8.642  -0.974  1.00  0.00     0.046 A 
ATOM     25  C   UNL     1       6.497  -9.488  -1.040  1.00  0.00     0.010 A 
ATOM     26  H   UNL     1       2.566  -7.269  -0.999  1.00  0.00     0.166 HD
ATOM     27  C   UNL     1       3.685  -9.933  -0.844  1.00  0.00     0.026 A 
ATOM     28  C   UNL     1       5.968 -10.748  -0.913  1.00  0.00     0.001 A 
ATOM     29  C   UNL     1       4.604 -10.968  -0.815  1.00  0.00     0.002 A 
BRANCH   8  30
ATOM     30  O   UNL     1       6.652  -4.441  -2.809  1.00  0.00    -0.382 OA
ATOM     31  H   UNL     1       6.441  -3.478  -2.903  1.00  0.00     0.211 HD
ENDBRANCH   8  30
ENDBRANCH   1   2
BRANCH   1  32
ATOM     32  C   UNL     1       1.640  -0.086  -1.117  1.00  0.00     0.346 A 
ATOM     33  N   UNL     1       0.362   0.361  -1.061  1.00  0.00    -0.162 N 
ATOM     34  N   UNL     1       2.388   0.929  -1.484  1.00  0.00    -0.070 NA
ATOM     35  N   UNL     1       0.429   1.717  -1.425  1.00  0.00    -0.037 NA
ATOM     36  N   UNL     1       1.669   1.978  -1.662  1.00  0.00    -0.020 NA
BRANCH  33  37
ATOM     37  C   UNL     1      -0.782  -0.373  -0.713  1.00  0.00     0.072 A 
ATOM     38  C   UNL     1      -1.814   0.238  -0.015  1.00  0.00     0.028 A 
ATOM     39  C   UNL     1      -0.886  -1.710  -1.072  1.00  0.00     0.028 A 
ATOM     40  C   UNL     1      -2.939  -0.486   0.326  1.00  0.00     0.002 A 
ATOM     41  C   UNL     1      -2.011  -2.431  -0.723  1.00  0.00     0.002 A 
ATOM     42  C   UNL     1      -3.038  -1.820  -0.027  1.00  0.00     0.000 A 
ENDBRANCH  33  37
ENDBRANCH   1  32
TORSDOF 4
