REMARK SMILES C[NH+]1CCN(C[C@H]2C[C@@H](C(=O)NCCc3ccccc3)C[N@@H+](Cc3ccc4ccccc4c3)C2)CC1
REMARK SMILES IDX 10 1 11 2 12 3 9 5 7 6 34 7 8 8 22 9 21 10 6 12 5 13 1 14
REMARK SMILES IDX 2 15 36 16 3 17 35 19 4 20 23 21 24 22 33 23 25 24 32 25
REMARK SMILES IDX 26 26 27 27 31 28 28 29 30 30 29 31 13 32 14 33 15 34 20 35
REMARK SMILES IDX 16 36 19 37 17 38 18 39
REMARK H PARENT 12 4 22 11 2 18
REMARK Flexibility Score: inf
ROOT
ATOM      1  C   UNL     1      -0.843   3.320   1.438  1.00  0.00     0.228 C 
ATOM      2  O   UNL     1      -0.401   4.119   0.639  1.00  0.00    -0.275 OA
ATOM      3  N   UNL     1      -0.704   1.998   1.216  1.00  0.00    -0.355 N 
ATOM      4  H   UNL     1      -1.080   1.320   1.894  1.00  0.00     0.163 HD
ENDROOT
BRANCH   1   5
ATOM      5  C   UNL     1      -1.549   3.806   2.677  1.00  0.00     0.134 C 
ATOM      6  C   UNL     1      -2.230   5.823   3.980  1.00  0.00     0.059 C 
ATOM      7  C   UNL     1      -1.471   5.258   5.183  1.00  0.00     0.267 C 
ATOM      8  C   UNL     1      -1.566   5.337   2.689  1.00  0.00     0.030 C 
ATOM      9  N   UNL     1      -1.484   3.791   5.126  1.00  0.00    -0.330 N 
ATOM     10  C   UNL     1      -0.809   3.300   3.918  1.00  0.00     0.276 C 
ATOM     11  H   UNL     1      -2.467   3.486   5.082  1.00  0.00     0.348 HD
BRANCH   6  12
ATOM     12  C   UNL     1      -2.199   7.352   4.028  1.00  0.00     0.094 C 
BRANCH  12  13
ATOM     13  N   UNL     1      -2.937   7.820   5.209  1.00  0.00    -0.292 NA
ATOM     14  C   UNL     1      -5.620   9.845   7.767  1.00  0.00     0.332 C 
ATOM     15  N   UNL     1      -4.882   9.377   6.587  1.00  0.00    -0.335 N 
ATOM     16  C   UNL     1      -5.087   7.938   6.373  1.00  0.00     0.277 C 
ATOM     17  C   UNL     1      -3.451   9.691   6.702  1.00  0.00     0.277 C 
ATOM     18  H   UNL     1      -5.251   9.876   5.765  1.00  0.00     0.347 HD
ATOM     19  C   UNL     1      -4.368   7.507   5.093  1.00  0.00     0.146 C 
ATOM     20  C   UNL     1      -2.732   9.259   5.422  1.00  0.00     0.146 C 
ENDBRANCH  12  13
ENDBRANCH   6  12
BRANCH   9  21
ATOM     21  C   UNL     1      -0.884   3.212   6.336  1.00  0.00     0.299 C 
BRANCH  21  22
ATOM     22  C   UNL     1       0.529   3.713   6.486  1.00  0.00     0.007 A 
ATOM     23  C   UNL     1       0.763   4.856   7.187  1.00  0.00     0.018 A 
ATOM     24  C   UNL     1       1.576   2.998   5.908  1.00  0.00     0.010 A 
ATOM     25  C   UNL     1       2.080   5.326   7.329  1.00  0.00    -0.018 A 
ATOM     26  C   UNL     1       2.863   3.426   6.020  1.00  0.00     0.009 A 
ATOM     27  C   UNL     1       3.145   4.601   6.738  1.00  0.00    -0.018 A 
ATOM     28  C   UNL     1       2.362   6.501   8.046  1.00  0.00     0.009 A 
ATOM     29  C   UNL     1       4.461   5.072   6.879  1.00  0.00     0.009 A 
ATOM     30  C   UNL     1       3.650   6.926   8.164  1.00  0.00     0.001 A 
ATOM     31  C   UNL     1       4.696   6.213   7.582  1.00  0.00     0.001 A 
ENDBRANCH  21  22
ENDBRANCH   9  21
ENDBRANCH   1   5
BRANCH   3  32
ATOM     32  C   UNL     1      -0.019   1.526   0.010  1.00  0.00     0.120 C 
BRANCH  32  33
ATOM     33  C   UNL     1       0.002  -0.004   0.002  1.00  0.00     0.056 C 
BRANCH  33  34
ATOM     34  C   UNL     1       0.707  -0.490  -1.238  1.00  0.00    -0.046 A 
ATOM     35  C   UNL     1       2.073  -0.702  -1.218  1.00  0.00     0.004 A 
ATOM     36  C   UNL     1      -0.012  -0.729  -2.394  1.00  0.00     0.004 A 
ATOM     37  C   UNL     1       2.720  -1.148  -2.355  1.00  0.00     0.000 A 
ATOM     38  C   UNL     1       0.636  -1.170  -3.533  1.00  0.00     0.000 A 
ATOM     39  C   UNL     1       2.001  -1.383  -3.512  1.00  0.00     0.000 A 
ENDBRANCH  33  34
ENDBRANCH  32  33
ENDBRANCH   3  32
TORSDOF 8
