REMARK SMILES C/C(=N\NC(=O)[C@H](NC(=O)c1ccccc1)c1n[nH]c(=O)c2ccccc12)c1cccc(Br)c1
REMARK SMILES IDX 4 1 5 2 6 3 3 5 1 6 2 7 28 8 34 9 29 10 32 11 30 12 31 13
REMARK SMILES IDX 33 14 7 15 17 16 18 17 27 18 19 19 22 20 26 21 20 22 23 24
REMARK SMILES IDX 25 25 21 26 24 27 8 28 9 29 10 31 11 32 16 33 12 34 15 35
REMARK SMILES IDX 13 36 14 37
REMARK H PARENT 4 4 19 23 8 30
REMARK Flexibility Score: inf
ROOT
ATOM      1  N   UNL     1      -0.144   3.808   2.179  1.00  0.00    -0.245 N 
ATOM      2  C   UNL     1      -1.245   4.096   1.458  1.00  0.00     0.269 C 
ATOM      3  O   UNL     1      -2.136   4.756   1.949  1.00  0.00    -0.270 OA
ATOM      4  H   UNL     1       0.613   3.247   1.763  1.00  0.00     0.193 HD
ENDROOT
BRANCH   1   5
ATOM      5  N   UNL     1      -0.028   4.272   3.496  1.00  0.00    -0.177 NA
ATOM      6  C   UNL     1       2.139   3.174   3.581  1.00  0.00     0.069 C 
ATOM      7  C   UNL     1       1.032   3.995   4.191  1.00  0.00     0.065 C 
BRANCH   7   8
ATOM      8  C   UNL     1       1.154   4.483   5.577  1.00  0.00    -0.001 A 
ATOM      9  C   UNL     1       0.130   5.243   6.146  1.00  0.00     0.025 A 
ATOM     10  C   UNL     1       2.291   4.182   6.330  1.00  0.00     0.010 A 
ATOM     11  C   UNL     1       0.250   5.697   7.444  1.00  0.00     0.018 A 
ATOM     12  C   UNL     1       2.401   4.644   7.625  1.00  0.00     0.002 A 
ATOM     13  C   UNL     1       1.383   5.398   8.182  1.00  0.00     0.016 A 
ATOM     14  Br  UNL     1      -1.135   6.727   8.216  1.00  0.00    -0.051 Br
ENDBRANCH   7   8
ENDBRANCH   1   5
BRANCH   2  15
ATOM     15  C   UNL     1      -1.370   3.597   0.041  1.00  0.00     0.225 C 
BRANCH  15  16
ATOM     16  C   UNL     1      -1.311   2.091   0.032  1.00  0.00     0.101 A 
ATOM     17  N   UNL     1      -2.411   1.398   0.034  1.00  0.00    -0.174 NA
ATOM     18  C   UNL     1      -0.017   1.409   0.010  1.00  0.00     0.013 A 
ATOM     19  N   UNL     1      -2.423   0.003   0.026  1.00  0.00    -0.243 N 
ATOM     20  C   UNL     1       0.002  -0.004   0.002  1.00  0.00     0.050 A 
ATOM     21  C   UNL     1       1.188   2.115   0.002  1.00  0.00     0.011 A 
ATOM     22  C   UNL     1      -1.282  -0.716   0.011  1.00  0.00     0.272 A 
ATOM     23  H   UNL     1      -3.327  -0.490   0.032  1.00  0.00     0.194 HD
ATOM     24  C   UNL     1       1.222  -0.679  -0.013  1.00  0.00     0.014 A 
ATOM     25  C   UNL     1       2.372   1.433  -0.013  1.00  0.00     0.001 A 
ATOM     26  O   UNL     1      -1.316  -1.934   0.005  1.00  0.00    -0.267 OA
ATOM     27  C   UNL     1       2.395   0.044  -0.021  1.00  0.00     0.001 A 
ENDBRANCH  15  16
BRANCH  15  28
ATOM     28  N   UNL     1      -2.647   4.040  -0.522  1.00  0.00    -0.335 N 
ATOM     29  C   UNL     1      -2.786   4.171  -1.856  1.00  0.00     0.252 C 
ATOM     30  H   UNL     1      -3.440   4.250   0.101  1.00  0.00     0.165 HD
ATOM     31  O   UNL     1      -1.851   3.923  -2.592  1.00  0.00    -0.269 OA
BRANCH  29  32
ATOM     32  C   UNL     1      -4.076   4.618  -2.425  1.00  0.00     0.039 A 
ATOM     33  C   UNL     1      -4.223   4.756  -3.806  1.00  0.00     0.014 A 
ATOM     34  C   UNL     1      -5.153   4.899  -1.583  1.00  0.00     0.014 A 
ATOM     35  C   UNL     1      -5.429   5.173  -4.330  1.00  0.00     0.001 A 
ATOM     36  C   UNL     1      -6.352   5.321  -2.119  1.00  0.00     0.001 A 
ATOM     37  C   UNL     1      -6.492   5.455  -3.489  1.00  0.00     0.000 A 
ENDBRANCH  29  32
ENDBRANCH  15  28
ENDBRANCH   2  15
TORSDOF 6
