REMARK SMILES Cc1c2oc3c(C)ccc(C(=O)NCCc4ccccc4)c3nc-2c(C(=O)NCCc2ccccc2)c(N)c1=O
REMARK SMILES IDX 7 1 6 2 8 3 9 4 10 5 22 6 5 7 4 8 3 9 2 10 39 11 40 12 37 13
REMARK SMILES IDX 25 14 24 15 23 16 1 17 11 18 12 19 13 20 14 22 15 23 16 24
REMARK SMILES IDX 21 25 17 26 20 27 18 28 19 29 26 30 27 31 28 32 29 34 30 35
REMARK SMILES IDX 31 36 36 37 32 38 35 39 33 40 34 41 38 42
REMARK H PARENT 13 21 28 33 38 43 38 44
REMARK Flexibility Score: inf
ROOT
ATOM      1  C   UNL     1      -4.172   1.052  -2.308  1.00  0.00     0.048 C 
ATOM      2  C   UNL     1      -4.862   1.540  -1.060  1.00  0.00    -0.006 A 
ATOM      3  C   UNL     1      -6.224   1.755  -1.070  1.00  0.00     0.008 A 
ATOM      4  C   UNL     1      -6.880   2.203   0.069  1.00  0.00     0.016 A 
ATOM      5  C   UNL     1      -6.170   2.442   1.237  1.00  0.00     0.069 A 
ATOM      6  C   UNL     1      -4.769   2.225   1.262  1.00  0.00     0.119 A 
ATOM      7  C   UNL     1      -4.121   1.769   0.096  1.00  0.00     0.156 A 
ATOM      8  O   UNL     1      -2.786   1.555   0.092  1.00  0.00    -0.452 OA
ATOM      9  C   UNL     1      -2.076   1.785   1.217  1.00  0.00     0.160 A 
ATOM     10  C   UNL     1      -0.718   1.572   1.248  1.00  0.00     0.044 A 
ATOM     11  C   UNL     1       0.018   1.806   2.415  1.00  0.00     0.209 A 
ATOM     12  O   UNL     1       1.224   1.613   2.414  1.00  0.00    -0.287 OA
ATOM     13  C   UNL     1      -0.641   2.281   3.643  1.00  0.00     0.095 A 
ATOM     14  C   UNL     1      -2.010   2.503   3.651  1.00  0.00     0.096 A 
ATOM     15  C   UNL     1      -2.777   2.255   2.422  1.00  0.00     0.122 A 
ATOM     16  N   UNL     1      -4.080   2.453   2.387  1.00  0.00    -0.239 NA
ATOM     17  C   UNL     1      -0.013   1.086   0.008  1.00  0.00     0.053 C 
ENDROOT
BRANCH   5  18
ATOM     18  C   UNL     1      -6.870   2.919   2.446  1.00  0.00     0.253 C 
ATOM     19  O   UNL     1      -6.245   3.126   3.468  1.00  0.00    -0.269 OA
ATOM     20  N   UNL     1      -8.202   3.124   2.418  1.00  0.00    -0.352 N 
ATOM     21  H   UNL     1      -8.732   2.948   1.552  1.00  0.00     0.163 HD
BRANCH  20  22
ATOM     22  C   UNL     1      -8.896   3.597   3.618  1.00  0.00     0.121 C 
BRANCH  22  23
ATOM     23  C   UNL     1     -10.389   3.746   3.318  1.00  0.00     0.057 C 
BRANCH  23  24
ATOM     24  C   UNL     1     -11.103   4.232   4.553  1.00  0.00    -0.046 A 
ATOM     25  C   UNL     1     -11.249   5.588   4.778  1.00  0.00     0.004 A 
ATOM     26  C   UNL     1     -11.617   3.322   5.457  1.00  0.00     0.004 A 
ATOM     27  C   UNL     1     -11.905   6.035   5.910  1.00  0.00     0.000 A 
ATOM     28  C   UNL     1     -12.268   3.768   6.592  1.00  0.00     0.000 A 
ATOM     29  C   UNL     1     -12.414   5.125   6.818  1.00  0.00     0.000 A 
ENDBRANCH  23  24
ENDBRANCH  22  23
ENDBRANCH  20  22
ENDBRANCH   5  18
BRANCH  14  30
ATOM     30  C   UNL     1      -2.683   2.978   4.869  1.00  0.00     0.255 C 
ATOM     31  O   UNL     1      -2.802   4.172   5.072  1.00  0.00    -0.269 OA
ATOM     32  N   UNL     1      -3.168   2.091   5.761  1.00  0.00    -0.352 N 
ATOM     33  H   UNL     1      -3.067   1.081   5.589  1.00  0.00     0.163 HD
BRANCH  32  34
ATOM     34  C   UNL     1      -3.839   2.565   6.974  1.00  0.00     0.121 C 
BRANCH  34  35
ATOM     35  C   UNL     1      -4.290   1.365   7.809  1.00  0.00     0.057 C 
BRANCH  35  36
ATOM     36  C   UNL     1      -4.980   1.852   9.057  1.00  0.00    -0.046 A 
ATOM     37  C   UNL     1      -6.345   2.069   9.052  1.00  0.00     0.004 A 
ATOM     38  C   UNL     1      -4.249   2.076  10.208  1.00  0.00     0.004 A 
ATOM     39  C   UNL     1      -6.978   2.515  10.197  1.00  0.00     0.000 A 
ATOM     40  C   UNL     1      -4.880   2.527  11.352  1.00  0.00     0.000 A 
ATOM     41  C   UNL     1      -6.246   2.745  11.347  1.00  0.00     0.000 A 
ENDBRANCH  35  36
ENDBRANCH  34  35
ENDBRANCH  32  34
ENDBRANCH  14  30
BRANCH  13  42
ATOM     42  N   UNL     1       0.100   2.505   4.781  1.00  0.00    -0.395 N 
ATOM     43  H   UNL     1       1.117   2.340   4.773  1.00  0.00     0.156 HD
ATOM     44  H   UNL     1      -0.361   2.838   5.639  1.00  0.00     0.156 HD
ENDBRANCH  13  42
TORSDOF 9
