REMARK SMILES O=C(CCCc1nc2ccccc2[nH]1)N1CCc2[nH]c3ccc(Br)cc3c2C1
REMARK SMILES IDX 4 1 5 2 6 3 11 4 12 5 10 6 13 7 9 8 8 9 14 10 7 11 3 13 2 14
REMARK SMILES IDX 1 15 15 16 28 17 16 18 27 19 17 20 18 21 26 22 19 23 20 24
REMARK SMILES IDX 25 25 21 27 23 28 22 29 24 30
REMARK H PARENT 14 12 19 26
REMARK Flexibility Score: inf
ROOT
ATOM      1  C   UNL     1      -0.729   1.579   1.267  1.00  0.00     0.018 C 
ENDROOT
BRANCH   1   2
ATOM      2  C   UNL     1       0.011   1.072   2.506  1.00  0.00     0.076 C 
BRANCH   2   3
ATOM      3  C   UNL     1      -0.694   1.558   3.746  1.00  0.00     0.107 A 
ATOM      4  C   UNL     1      -2.838   2.421   7.641  1.00  0.00     0.002 A 
ATOM      5  C   UNL     1      -2.347   1.354   6.919  1.00  0.00     0.028 A 
ATOM      6  C   UNL     1      -2.716   3.715   7.155  1.00  0.00     0.002 A 
ATOM      7  C   UNL     1      -1.726   1.578   5.698  1.00  0.00     0.065 A 
ATOM      8  C   UNL     1      -2.107   3.954   5.955  1.00  0.00     0.030 A 
ATOM      9  C   UNL     1      -1.602   2.888   5.206  1.00  0.00     0.089 A 
ATOM     10  N   UNL     1      -1.142   0.759   4.752  1.00  0.00    -0.342 N 
ATOM     11  N   UNL     1      -0.959   2.804   4.013  1.00  0.00    -0.233 NA
ATOM     12  H   UNL     1      -1.061  -0.267   4.799  1.00  0.00     0.168 HD
ENDBRANCH   2   3
ENDBRANCH   1   2
BRANCH   1  13
ATOM     13  C   UNL     1      -0.013   1.086   0.008  1.00  0.00     0.101 C 
BRANCH  13  14
ATOM     14  C   UNL     1      -0.742   1.585  -1.213  1.00  0.00     0.222 C 
ATOM     15  O   UNL     1      -1.736   2.268  -1.088  1.00  0.00    -0.275 OA
BRANCH  14  16
ATOM     16  N   UNL     1      -0.288   1.272  -2.443  1.00  0.00    -0.338 N 
ATOM     17  C   UNL     1      -0.989   1.744  -3.651  1.00  0.00     0.157 C 
ATOM     18  C   UNL     1       0.915   0.445  -2.618  1.00  0.00     0.126 C 
ATOM     19  C   UNL     1      -1.065   0.590  -4.614  1.00  0.00     0.000 A 
ATOM     20  C   UNL     1       0.524  -0.871  -3.299  1.00  0.00     0.075 C 
ATOM     21  C   UNL     1      -0.393  -0.571  -4.460  1.00  0.00     0.023 A 
ATOM     22  C   UNL     1      -1.832   0.484  -5.837  1.00  0.00     0.006 A 
ATOM     23  N   UNL     1      -0.676  -1.409  -5.508  1.00  0.00    -0.358 N 
ATOM     24  C   UNL     1      -1.549  -0.802  -6.364  1.00  0.00     0.046 A 
ATOM     25  C   UNL     1      -2.702   1.362  -6.491  1.00  0.00     0.026 A 
ATOM     26  H   UNL     1      -0.289  -2.356  -5.630  1.00  0.00     0.166 HD
ATOM     27  C   UNL     1      -2.137  -1.225  -7.555  1.00  0.00     0.028 A 
ATOM     28  C   UNL     1      -3.267   0.918  -7.662  1.00  0.00     0.018 A 
ATOM     29  C   UNL     1      -2.995  -0.338  -8.181  1.00  0.00     0.018 A 
ATOM     30  Br  UNL     1      -4.454   2.057  -8.595  1.00  0.00    -0.051 Br
ENDBRANCH  14  16
ENDBRANCH  13  14
ENDBRANCH   1  13
TORSDOF 5
