REMARK SMILES CCCCc1nc2sc3c(NCCNC(=O)C(C)C)nc(SC)nc3c2c2c1COC(C)(C)C2
REMARK SMILES IDX 11 1 10 3 5 4 6 5 28 6 7 7 29 8 27 9 26 10 8 11 30 12 34 13
REMARK SMILES IDX 25 14 9 15 31 16 24 17 32 18 33 19 21 20 20 21 4 22 3 23
REMARK SMILES IDX 2 24 1 25 22 26 23 27 12 28 13 29 14 30 15 31 16 33 17 34
REMARK SMILES IDX 18 35 19 36
REMARK H PARENT 11 2 14 32
REMARK Flexibility Score: inf
ROOT
ATOM      1  N   UNL     1      -1.228   3.481   0.027  1.00  0.00    -0.367 N 
ATOM      2  H   UNL     1      -0.341   4.004   0.025  1.00  0.00     0.162 HD
ENDROOT
BRANCH   1   3
ATOM      3  C   UNL     1      -1.216   2.095   0.020  1.00  0.00     0.148 A 
ATOM      4  C   UNL     1       3.969  -1.454  -0.048  1.00  0.00     0.048 A 
ATOM      5  N   UNL     1       3.678  -0.169  -0.034  1.00  0.00    -0.241 NA
ATOM      6  C   UNL     1       2.959  -2.408  -0.045  1.00  0.00     0.003 A 
ATOM      7  C   UNL     1       2.431   0.253  -0.020  1.00  0.00     0.126 A 
ATOM      8  C   UNL     1       3.336  -3.867  -0.067  1.00  0.00     0.198 C 
ATOM      9  C   UNL     1       1.645  -2.010  -0.025  1.00  0.00    -0.025 A 
ATOM     10  C   UNL     1       1.337  -0.631  -0.015  1.00  0.00     0.042 A 
ATOM     11  S   UNL     1       1.691   1.867  -0.004  1.00  0.00    -0.110 S 
ATOM     12  O   UNL     1       2.218  -4.670   0.312  1.00  0.00    -0.370 OA
ATOM     13  C   UNL     1       0.514  -3.003  -0.009  1.00  0.00     0.071 C 
ATOM     14  C   UNL     1       0.002  -0.004   0.002  1.00  0.00     0.098 A 
ATOM     15  C   UNL     1      -0.017   1.395   0.010  1.00  0.00     0.098 A 
ATOM     16  C   UNL     1       1.032  -4.379  -0.436  1.00  0.00     0.067 C 
ATOM     17  N   UNL     1      -1.204  -0.616   0.011  1.00  0.00    -0.221 NA
ATOM     18  C   UNL     1       1.357  -4.365  -1.931  1.00  0.00     0.042 C 
ATOM     19  C   UNL     1      -0.031  -5.441  -0.147  1.00  0.00     0.042 C 
ATOM     20  C   UNL     1      -2.323   0.077   0.026  1.00  0.00     0.189 A 
ATOM     21  N   UNL     1      -2.354   1.404   0.033  1.00  0.00    -0.204 NA
BRANCH   4  22
ATOM     22  C   UNL     1       5.411  -1.893  -0.065  1.00  0.00     0.056 C 
BRANCH  22  23
ATOM     23  C   UNL     1       5.913  -2.053   1.371  1.00  0.00     0.006 C 
BRANCH  23  24
ATOM     24  C   UNL     1       7.377  -2.499   1.353  1.00  0.00    -0.003 C 
ATOM     25  C   UNL     1       7.879  -2.659   2.789  1.00  0.00     0.004 C 
ENDBRANCH  23  24
ENDBRANCH  22  23
ENDBRANCH   4  22
BRANCH  20  26
ATOM     26  S   UNL     1      -3.853  -0.798   0.037  1.00  0.00    -0.090 SA
ATOM     27  C   UNL     1      -5.011   0.593   0.056  1.00  0.00     0.094 C 
ENDBRANCH  20  26
ENDBRANCH   1   3
BRANCH   1  28
ATOM     28  C   UNL     1      -2.503   4.203   0.038  1.00  0.00     0.135 C 
BRANCH  28  29
ATOM     29  C   UNL     1      -2.236   5.709   0.044  1.00  0.00     0.137 C 
BRANCH  29  30
ATOM     30  N   UNL     1      -3.511   6.431   0.055  1.00  0.00    -0.354 N 
ATOM     31  C   UNL     1      -3.523   7.778   0.061  1.00  0.00     0.222 C 
ATOM     32  H   UNL     1      -4.399   5.908   0.057  1.00  0.00     0.163 HD
ATOM     33  O   UNL     1      -2.478   8.394   0.059  1.00  0.00    -0.275 OA
BRANCH  31  34
ATOM     34  C   UNL     1      -4.835   8.520   0.073  1.00  0.00     0.072 C 
ATOM     35  C   UNL     1      -4.568  10.027   0.079  1.00  0.00     0.018 C 
ATOM     36  C   UNL     1      -5.641   8.150  -1.174  1.00  0.00     0.018 C 
ENDBRANCH  31  34
ENDBRANCH  29  30
ENDBRANCH  28  29
ENDBRANCH   1  28
TORSDOF 9
