REMARK SMILES C[C@H](OC(=O)c1sc(-c2ccccc2)nc1-c1ccccc1)C(=O)N1CCC[C@@H](C(N)=O)C1
REMARK SMILES IDX 1 1 2 2 23 3 24 4 25 5 33 6 26 7 29 8 27 9 28 10 30 11 32 12
REMARK SMILES IDX 31 13 3 16 4 17 5 18 6 19 7 20 16 21 8 22 15 23 17 24 22 25
REMARK SMILES IDX 18 26 21 27 19 28 20 29 9 30 14 31 10 32 13 33 11 34 12 35
REMARK H PARENT 31 14 31 15
REMARK Flexibility Score: inf
ROOT
ATOM      1  C   UNL     1       1.885   1.250   2.130  1.00  0.00     0.064 C 
ATOM      2  C   UNL     1       1.321   2.660   1.939  1.00  0.00     0.262 C 
ENDROOT
BRANCH   2   3
ATOM      3  C   UNL     1      -0.184   2.603   1.934  1.00  0.00     0.263 C 
ATOM      4  O   UNL     1      -0.815   3.144   2.817  1.00  0.00    -0.271 OA
BRANCH   3   5
ATOM      5  N   UNL     1      -0.831   1.950   0.948  1.00  0.00    -0.339 N 
ATOM      6  C   UNL     1      -2.301   1.885   0.923  1.00  0.00     0.133 C 
ATOM      7  C   UNL     1      -0.081   1.289  -0.129  1.00  0.00     0.119 C 
ATOM      8  C   UNL     1      -2.796   2.385  -0.438  1.00  0.00     0.098 C 
ATOM      9  C   UNL     1      -0.601   1.795  -1.478  1.00  0.00     0.022 C 
ATOM     10  C   UNL     1      -2.115   1.583  -1.549  1.00  0.00     0.017 C 
BRANCH   8  11
ATOM     11  C   UNL     1      -4.290   2.202  -0.528  1.00  0.00     0.222 C 
ATOM     12  O   UNL     1      -4.899   1.723   0.404  1.00  0.00    -0.275 OA
ATOM     13  N   UNL     1      -4.947   2.572  -1.645  1.00  0.00    -0.369 N 
ATOM     14  H   UNL     1      -4.429   2.979  -2.437  1.00  0.00     0.159 HD
ATOM     15  H   UNL     1      -5.967   2.447  -1.707  1.00  0.00     0.159 HD
ENDBRANCH   8  11
ENDBRANCH   3   5
ENDBRANCH   2   3
BRANCH   2  16
ATOM     16  O   UNL     1       1.763   3.498   3.008  1.00  0.00    -0.448 OA
BRANCH  16  17
ATOM     17  C   UNL     1       2.925   4.160   2.829  1.00  0.00     0.351 C 
ATOM     18  O   UNL     1       3.546   4.027   1.791  1.00  0.00    -0.245 OA
BRANCH  17  19
ATOM     19  C   UNL     1       3.438   5.035   3.880  1.00  0.00     0.141 A 
ATOM     20  S   UNL     1       2.829   5.306   5.538  1.00  0.00    -0.106 S 
ATOM     21  C   UNL     1       4.541   5.900   3.867  1.00  0.00     0.097 A 
ATOM     22  C   UNL     1       4.023   6.462   6.038  1.00  0.00     0.124 A 
ATOM     23  N   UNL     1       4.784   6.582   4.963  1.00  0.00    -0.235 NA
BRANCH  21  24
ATOM     24  C   UNL     1       5.396   6.040   2.666  1.00  0.00     0.002 A 
ATOM     25  C   UNL     1       4.816   6.174   1.405  1.00  0.00     0.010 A 
ATOM     26  C   UNL     1       6.785   6.043   2.792  1.00  0.00     0.010 A 
ATOM     27  C   UNL     1       5.619   6.304   0.289  1.00  0.00     0.001 A 
ATOM     28  C   UNL     1       7.577   6.168   1.669  1.00  0.00     0.001 A 
ATOM     29  C   UNL     1       6.996   6.300   0.421  1.00  0.00     0.000 A 
ENDBRANCH  21  24
BRANCH  22  30
ATOM     30  C   UNL     1       4.153   7.148   7.341  1.00  0.00     0.010 A 
ATOM     31  C   UNL     1       3.242   6.886   8.366  1.00  0.00     0.011 A 
ATOM     32  C   UNL     1       5.192   8.056   7.554  1.00  0.00     0.011 A 
ATOM     33  C   UNL     1       3.370   7.529   9.579  1.00  0.00     0.001 A 
ATOM     34  C   UNL     1       5.305   8.696   8.771  1.00  0.00     0.001 A 
ATOM     35  C   UNL     1       4.399   8.432   9.783  1.00  0.00     0.000 A 
ENDBRANCH  22  30
ENDBRANCH  17  19
ENDBRANCH  16  17
ENDBRANCH   2  16
TORSDOF 8
