REMARK SMILES C[C@H](Oc1ccc2ccccc2c1)C(=O)NNC(=S)NC(=O)c1ccccc1OCCc1ccccc1
REMARK SMILES IDX 20 1 21 2 22 3 18 5 19 6 17 7 16 9 14 10 15 11 2 13 1 14
REMARK SMILES IDX 3 15 4 16 13 17 5 18 12 19 6 20 7 21 11 22 8 23 10 24 9 25
REMARK SMILES IDX 23 26 28 27 24 28 27 29 25 30 26 31 29 32 30 33 31 34 32 35
REMARK SMILES IDX 37 36 33 37 36 38 34 39 35 40
REMARK H PARENT 20 4 17 8 16 12
REMARK Flexibility Score: inf
ROOT
ATOM      1  N   UNL     1      -7.055   0.863   1.726  1.00  0.00    -0.298 N 
ATOM      2  C   UNL     1      -8.268   1.392   1.976  1.00  0.00     0.261 C 
ATOM      3  O   UNL     1      -9.081   0.768   2.630  1.00  0.00    -0.269 OA
ATOM      4  H   UNL     1      -6.366   1.392   1.172  1.00  0.00     0.172 HD
ENDROOT
BRANCH   1   5
ATOM      5  C   UNL     1      -6.742  -0.359   2.200  1.00  0.00     0.192 C 
ATOM      6  S   UNL     1      -7.886  -1.239   3.121  1.00  0.00    -0.039 S 
BRANCH   5   7
ATOM      7  N   UNL     1      -5.528  -0.889   1.950  1.00  0.00    -0.274 N 
ATOM      8  H   UNL     1      -5.289  -1.823   2.313  1.00  0.00     0.190 HD
BRANCH   7   9
ATOM      9  N   UNL     1      -4.591  -0.169   1.197  1.00  0.00    -0.265 N 
ATOM     10  C   UNL     1      -3.377  -0.699   0.947  1.00  0.00     0.279 C 
ATOM     11  O   UNL     1      -3.096  -1.798   1.374  1.00  0.00    -0.269 OA
ATOM     12  H   UNL     1      -4.830   0.765   0.834  1.00  0.00     0.191 HD
BRANCH  10  13
ATOM     13  C   UNL     1      -2.370   0.076   0.136  1.00  0.00     0.260 C 
ATOM     14  C   UNL     1      -2.943   0.359  -1.254  1.00  0.00     0.064 C 
BRANCH  13  15
ATOM     15  O   UNL     1      -1.171  -0.691   0.010  1.00  0.00    -0.481 OA
BRANCH  15  16
ATOM     16  C   UNL     1      -0.020  -0.003  -0.215  1.00  0.00     0.121 A 
ATOM     17  C   UNL     1       1.171  -0.671  -0.236  1.00  0.00     0.055 A 
ATOM     18  C   UNL     1      -0.072   1.379  -0.423  1.00  0.00     0.047 A 
ATOM     19  C   UNL     1       2.361   0.039  -0.468  1.00  0.00    -0.015 A 
ATOM     20  C   UNL     1       1.062   2.094  -0.651  1.00  0.00     0.012 A 
ATOM     21  C   UNL     1       2.306   1.439  -0.678  1.00  0.00    -0.018 A 
ATOM     22  C   UNL     1       3.605  -0.614  -0.497  1.00  0.00     0.009 A 
ATOM     23  C   UNL     1       3.497   2.148  -0.911  1.00  0.00     0.009 A 
ATOM     24  C   UNL     1       4.738   0.105  -0.725  1.00  0.00     0.001 A 
ATOM     25  C   UNL     1       4.684   1.482  -0.932  1.00  0.00     0.001 A 
ENDBRANCH  15  16
ENDBRANCH  13  15
ENDBRANCH  10  13
ENDBRANCH   7   9
ENDBRANCH   5   7
ENDBRANCH   1   5
BRANCH   2  26
ATOM     26  C   UNL     1      -8.611   2.729   1.457  1.00  0.00     0.082 A 
ATOM     27  C   UNL     1      -9.872   3.284   1.714  1.00  0.00     0.132 A 
ATOM     28  C   UNL     1      -7.678   3.453   0.710  1.00  0.00     0.018 A 
ATOM     29  C   UNL     1     -10.183   4.543   1.221  1.00  0.00     0.047 A 
ATOM     30  C   UNL     1      -8.006   4.700   0.223  1.00  0.00     0.001 A 
ATOM     31  C   UNL     1      -9.254   5.244   0.480  1.00  0.00     0.004 A 
BRANCH  27  32
ATOM     32  O   UNL     1     -10.784   2.593   2.443  1.00  0.00    -0.492 OA
BRANCH  32  33
ATOM     33  C   UNL     1     -12.048   3.222   2.665  1.00  0.00     0.234 C 
BRANCH  33  34
ATOM     34  C   UNL     1     -12.938   2.299   3.499  1.00  0.00     0.077 C 
BRANCH  34  35
ATOM     35  C   UNL     1     -14.271   2.962   3.733  1.00  0.00    -0.045 A 
ATOM     36  C   UNL     1     -15.306   2.769   2.837  1.00  0.00     0.004 A 
ATOM     37  C   UNL     1     -14.460   3.759   4.846  1.00  0.00     0.004 A 
ATOM     38  C   UNL     1     -16.529   3.377   3.052  1.00  0.00     0.000 A 
ATOM     39  C   UNL     1     -15.681   4.372   5.058  1.00  0.00     0.000 A 
ATOM     40  C   UNL     1     -16.716   4.179   4.163  1.00  0.00     0.000 A 
ENDBRANCH  34  35
ENDBRANCH  33  34
ENDBRANCH  32  33
ENDBRANCH  27  32
ENDBRANCH   2  26
TORSDOF 11
