REMARK SMILES CC(C)CC(=O)Nc1ccc2c(c1)[C@H]1C=CC[C@@H]1[C@H](c1ccccc1OCc1ccccc1)N2
REMARK SMILES IDX 8 1 9 2 10 3 11 4 12 5 13 6 14 7 15 8 16 9 17 10 18 11 19 12
REMARK SMILES IDX 34 13 7 15 5 16 6 17 4 19 2 20 1 21 3 22 20 23 25 24 21 25
REMARK SMILES IDX 24 26 22 27 23 28 26 29 27 30 28 31 33 32 29 33 32 34 30 35
REMARK SMILES IDX 31 36
REMARK H PARENT 34 14 7 18
REMARK Flexibility Score: inf
ROOT
ATOM      1  C   UNL     1       1.569   8.742   1.876  1.00  0.00     0.041 A 
ATOM      2  C   UNL     1       1.337   8.947   0.522  1.00  0.00     0.028 A 
ATOM      3  C   UNL     1       0.893   7.908  -0.268  1.00  0.00     0.028 A 
ATOM      4  C   UNL     1       0.674   6.650   0.281  1.00  0.00     0.038 A 
ATOM      5  C   UNL     1       0.921   6.445   1.643  1.00  0.00    -0.015 A 
ATOM      6  C   UNL     1       1.359   7.487   2.430  1.00  0.00     0.032 A 
ATOM      7  C   UNL     1       0.696   5.085   2.180  1.00  0.00     0.049 C 
ATOM      8  C   UNL     1       0.369   4.821   3.614  1.00  0.00    -0.023 C 
ATOM      9  C   UNL     1      -0.425   3.760   3.693  1.00  0.00    -0.030 C 
ATOM     10  C   UNL     1      -0.713   3.217   2.292  1.00  0.00     0.034 C 
ATOM     11  C   UNL     1      -0.524   4.472   1.429  1.00  0.00     0.031 C 
ATOM     12  C   UNL     1      -0.058   4.265  -0.001  1.00  0.00     0.117 C 
ATOM     13  N   UNL     1       0.188   5.620  -0.542  1.00  0.00    -0.378 N 
ATOM     14  H   UNL     1      -0.001   5.810  -1.536  1.00  0.00     0.161 HD
ENDROOT
BRANCH   1  15
ATOM     15  N   UNL     1       2.015   9.800   2.680  1.00  0.00    -0.326 N 
ATOM     16  C   UNL     1       2.856  10.723   2.174  1.00  0.00     0.224 C 
ATOM     17  O   UNL     1       3.162  10.688   1.001  1.00  0.00    -0.275 OA
ATOM     18  H   UNL     1       1.699   9.872   3.658  1.00  0.00     0.169 HD
BRANCH  16  19
ATOM     19  C   UNL     1       3.417  11.801   3.066  1.00  0.00     0.103 C 
BRANCH  19  20
ATOM     20  C   UNL     1       4.337  12.711   2.250  1.00  0.00    -0.008 C 
ATOM     21  C   UNL     1       3.515  13.450   1.192  1.00  0.00     0.008 C 
ATOM     22  C   UNL     1       5.003  13.728   3.179  1.00  0.00     0.008 C 
ENDBRANCH  19  20
ENDBRANCH  16  19
ENDBRANCH   1  15
BRANCH  12  23
ATOM     23  C   UNL     1       1.215   3.458  -0.022  1.00  0.00     0.017 A 
ATOM     24  C   UNL     1       1.157   2.072  -0.029  1.00  0.00     0.125 A 
ATOM     25  C   UNL     1       2.439   4.097  -0.028  1.00  0.00     0.010 A 
ATOM     26  C   UNL     1       2.331   1.331  -0.054  1.00  0.00     0.047 A 
ATOM     27  C   UNL     1       3.607   3.357  -0.053  1.00  0.00     0.001 A 
ATOM     28  C   UNL     1       3.552   1.976  -0.066  1.00  0.00     0.004 A 
BRANCH  24  29
ATOM     29  O   UNL     1      -0.046   1.440  -0.017  1.00  0.00    -0.489 OA
BRANCH  29  30
ATOM     30  C   UNL     1      -0.029   0.011  -0.031  1.00  0.00     0.265 C 
BRANCH  30  31
ATOM     31  C   UNL     1      -1.443  -0.508  -0.015  1.00  0.00    -0.011 A 
ATOM     32  C   UNL     1      -2.110  -0.734  -1.205  1.00  0.00     0.007 A 
ATOM     33  C   UNL     1      -2.072  -0.763   1.189  1.00  0.00     0.007 A 
ATOM     34  C   UNL     1      -3.408  -1.211  -1.190  1.00  0.00     0.000 A 
ATOM     35  C   UNL     1      -3.371  -1.236   1.204  1.00  0.00     0.000 A 
ATOM     36  C   UNL     1      -4.038  -1.461   0.015  1.00  0.00     0.000 A 
ENDBRANCH  30  31
ENDBRANCH  29  30
ENDBRANCH  24  29
ENDBRANCH  12  23
TORSDOF 7
