REMARK SMILES Cc1cc(C)cc(C(=O)N[C@@H](CC(C)C)c2nnc3n2CCN(C(=O)c2ccc4cc[nH]c4c2)CC3)c1
REMARK SMILES IDX 36 1 19 2 16 3 20 4 17 5 18 6 11 7 10 8 8 9 9 10 7 12 1 13
REMARK SMILES IDX 2 14 37 15 3 16 4 17 6 18 5 19 12 20 13 21 14 22 15 23 21 24
REMARK SMILES IDX 35 26 23 27 22 28 24 30 25 31 26 32 34 33 27 34 33 35 28 36
REMARK SMILES IDX 29 37 32 38 30 39 31 40
REMARK H PARENT 10 11 32 41
REMARK Flexibility Score: 90.00
ROOT
ATOM      1  C   UNL     1      -4.819   1.174   6.190  1.00  0.00     0.099 C 
ENDROOT
BRANCH   1   2
ATOM      2  C   UNL     1      -4.463   1.555   4.777  1.00  0.00     0.134 A 
ATOM      3  C   UNL     1      -3.696   1.506   2.756  1.00  0.00     0.155 A 
ATOM      4  N   UNL     1      -3.701   0.827   3.928  1.00  0.00    -0.311 N 
ATOM      5  N   UNL     1      -4.392   2.596   2.936  1.00  0.00    -0.133 NA
ATOM      6  N   UNL     1      -4.848   2.625   4.139  1.00  0.00    -0.135 NA
BRANCH   3   7
ATOM      7  C   UNL     1      -3.008   1.086   1.483  1.00  0.00     0.151 C 
BRANCH   7   8
ATOM      8  N   UNL     1      -3.915   1.284   0.349  1.00  0.00    -0.342 N 
ATOM      9  C   UNL     1      -3.712   0.612  -0.801  1.00  0.00     0.251 C 
ATOM     10  O   UNL     1      -2.833  -0.225  -0.870  1.00  0.00    -0.269 OA
ATOM     11  H   UNL     1      -4.707   1.937   0.432  1.00  0.00     0.164 HD
BRANCH   9  12
ATOM     12  C   UNL     1      -4.559   0.892  -1.980  1.00  0.00     0.040 A 
ATOM     13  C   UNL     1      -7.448   3.145  -2.929  1.00  0.00     0.044 C 
ATOM     14  C   UNL     1      -6.357   2.108  -3.008  1.00  0.00    -0.050 A 
ATOM     15  C   UNL     1      -5.574   1.848  -1.903  1.00  0.00     0.017 A 
ATOM     16  C   UNL     1      -6.146   1.417  -4.188  1.00  0.00     0.006 A 
ATOM     17  C   UNL     1      -5.147   0.464  -4.269  1.00  0.00    -0.050 A 
ATOM     18  C   UNL     1      -4.352   0.198  -3.173  1.00  0.00     0.017 A 
ATOM     19  C   UNL     1      -4.924  -0.285  -5.558  1.00  0.00     0.044 C 
ENDBRANCH   9  12
ENDBRANCH   7   8
BRANCH   7  20
ATOM     20  C   UNL     1      -1.748   1.930   1.281  1.00  0.00     0.036 C 
BRANCH  20  21
ATOM     21  C   UNL     1      -0.747   1.628   2.398  1.00  0.00    -0.015 C 
ATOM     22  C   UNL     1       0.448   2.576   2.283  1.00  0.00     0.007 C 
ATOM     23  C   UNL     1      -0.264   0.181   2.273  1.00  0.00     0.007 C 
ENDBRANCH  20  21
ENDBRANCH   7  20
ENDBRANCH   3   7
BRANCH   4  24
ATOM     24  C   UNL     1      -2.994  -0.424   4.202  1.00  0.00     0.147 CG0
ATOM     25  G   UNL     1      -3.728  -1.214   5.289  1.00  0.00     0.000 G0
ENDBRANCH   4  24
ENDBRANCH   1   2
BRANCH   1  26
ATOM     26  C   UNL     1      -3.553   0.713   6.920  1.00  0.00     0.128 C 
BRANCH  26  27
ATOM     27  N   UNL     1      -3.326  -0.699   6.608  1.00  0.00    -0.336 N 
BRANCH  27  28
ATOM     28  C   UNL     1      -3.728  -1.214   5.289  1.00  0.00     0.141 CG0
ATOM     29  G   UNL     1      -2.994  -0.424   4.202  1.00  0.00     0.000 G0
ENDBRANCH  27  28
BRANCH  27  30
ATOM     30  C   UNL     1      -2.757  -1.517   7.516  1.00  0.00     0.254 C 
ATOM     31  O   UNL     1      -2.494  -2.666   7.218  1.00  0.00    -0.269 OA
BRANCH  30  32
ATOM     32  C   UNL     1      -2.454  -1.017   8.871  1.00  0.00     0.042 A 
ATOM     33  C   UNL     1      -2.007   0.291   9.043  1.00  0.00     0.040 A 
ATOM     34  C   UNL     1      -2.611  -1.864   9.978  1.00  0.00     0.014 A 
ATOM     35  C   UNL     1      -1.728   0.758  10.319  1.00  0.00     0.046 A 
ATOM     36  C   UNL     1      -2.333  -1.415  11.233  1.00  0.00     0.011 A 
ATOM     37  C   UNL     1      -1.889  -0.102  11.423  1.00  0.00    -0.001 A 
ATOM     38  N   UNL     1      -1.286   1.969  10.807  1.00  0.00    -0.361 N 
ATOM     39  C   UNL     1      -1.514   0.680  12.601  1.00  0.00     0.028 A 
ATOM     40  C   UNL     1      -1.165   1.904  12.166  1.00  0.00     0.083 A 
ATOM     41  H   UNL     1      -1.079   2.798  10.233  1.00  0.00     0.166 HD
ENDBRANCH  30  32
ENDBRANCH  27  30
ENDBRANCH  26  27
ENDBRANCH   1  26
TORSDOF 7
