REMARK SMILES C[C@]12CCC[C@@]3(CO3)[C@@H]1C[C@H]1[C@@H](C2)OC(=O)[C@@H]1C[NH2+]C1CC[NH+](Cc2ccccc2)CC1
REMARK SMILES IDX 20 1 21 2 22 3 23 4 31 5 32 6 19 8 18 11 17 12 1 13 2 14
REMARK SMILES IDX 9 15 13 16 3 17 6 18 10 19 12 20 4 21 5 22 8 23 7 24 11 25
REMARK SMILES IDX 14 26 15 27 16 28 24 29 25 30 30 31 26 32 29 33 27 34 28 35
REMARK H PARENT 23 7 19 9 19 10
REMARK Flexibility Score: inf
ROOT
ATOM      1  C   UNL     1      -3.427   1.966   6.051  1.00  0.00     0.193 C 
ATOM      2  C   UNL     1      -4.758   1.216   6.154  1.00  0.00     0.126 C 
ATOM      3  C   UNL     1      -4.902   0.635   7.563  1.00  0.00     0.268 C 
ATOM      4  N   UNL     1      -4.853   1.721   8.550  1.00  0.00    -0.331 N 
ATOM      5  C   UNL     1      -3.565   2.425   8.501  1.00  0.00     0.268 C 
ATOM      6  C   UNL     1      -3.381   3.060   7.121  1.00  0.00     0.126 C 
ATOM      7  H   UNL     1      -5.590   2.398   8.309  1.00  0.00     0.348 HD
ENDROOT
BRANCH   1   8
ATOM      8  N   UNL     1      -3.309   2.576   4.720  1.00  0.00    -0.343 N 
ATOM      9  H   UNL     1      -4.240   2.890   4.408  1.00  0.00     0.346 HD
ATOM     10  H   UNL     1      -2.685   3.393   4.775  1.00  0.00     0.346 HD
BRANCH   8  11
ATOM     11  C   UNL     1      -2.768   1.618   3.747  1.00  0.00     0.276 C 
BRANCH  11  12
ATOM     12  C   UNL     1      -2.661   2.288   2.376  1.00  0.00     0.161 C 
ATOM     13  C   UNL     1      -0.752   3.113  -1.257  1.00  0.00     0.012 C 
ATOM     14  C   UNL     1      -0.733   1.583  -1.246  1.00  0.00    -0.023 C 
ATOM     15  C   UNL     1      -2.171   1.048  -1.207  1.00  0.00     0.030 C 
ATOM     16  C   UNL     1      -0.013   1.086   0.008  1.00  0.00     0.052 C 
ATOM     17  C   UNL     1      -0.016   1.067  -2.493  1.00  0.00     0.007 C 
ATOM     18  C   UNL     1      -2.882   1.447  -2.501  1.00  0.00     0.095 C 
ATOM     19  C   UNL     1      -2.881   1.675  -0.010  1.00  0.00     0.015 C 
ATOM     20  C   UNL     1      -0.700   1.563   1.264  1.00  0.00     0.181 C 
ATOM     21  C   UNL     1      -0.728   1.572  -3.748  1.00  0.00     0.004 C 
ATOM     22  C   UNL     1      -2.164   1.041  -3.791  1.00  0.00     0.038 C 
ATOM     23  O   UNL     1      -3.632   2.660  -2.508  1.00  0.00    -0.369 OA
ATOM     24  C   UNL     1      -4.409   1.460  -2.506  1.00  0.00     0.196 C 
ATOM     25  C   UNL     1      -2.208   1.257   1.299  1.00  0.00     0.050 C 
ATOM     26  O   UNL     1      -0.640   3.007   1.442  1.00  0.00    -0.462 OA
ATOM     27  C   UNL     1      -1.561   3.330   2.378  1.00  0.00     0.315 C 
ATOM     28  O   UNL     1      -1.513   4.296   3.103  1.00  0.00    -0.252 OA
ENDBRANCH  11  12
ENDBRANCH   8  11
ENDBRANCH   1   8
BRANCH   4  29
ATOM     29  C   UNL     1      -5.126   1.216   9.902  1.00  0.00     0.299 C 
BRANCH  29  30
ATOM     30  C   UNL     1      -6.321   0.298   9.864  1.00  0.00     0.006 A 
ATOM     31  C   UNL     1      -6.145  -1.055   9.644  1.00  0.00     0.009 A 
ATOM     32  C   UNL     1      -7.591   0.809  10.054  1.00  0.00     0.009 A 
ATOM     33  C   UNL     1      -7.241  -1.897   9.609  1.00  0.00     0.001 A 
ATOM     34  C   UNL     1      -8.687  -0.033  10.014  1.00  0.00     0.001 A 
ATOM     35  C   UNL     1      -8.512  -1.386   9.794  1.00  0.00     0.000 A 
ENDBRANCH  29  30
ENDBRANCH   4  29
TORSDOF 5
