REMARK SMILES COC(=O)[C@@H]1Cc2c([nH]c3ccccc23)[C@H]2C[C@@H]([NH2+]C3CC3)C[C@@H](c3ccc(C(C)C)cc3)N21
REMARK SMILES IDX 24 1 23 2 18 3 17 4 16 5 5 6 6 7 7 8 8 9 9 10 10 11 15 12
REMARK SMILES IDX 14 13 13 14 12 15 11 16 34 17 25 19 28 20 32 21 27 22 33 23
REMARK SMILES IDX 26 24 29 25 30 26 31 27 19 28 20 31 22 32 21 33 3 34 4 35
REMARK SMILES IDX 2 36 1 37
REMARK H PARENT 9 18 19 29 19 30
REMARK Flexibility Score: inf
ROOT
ATOM      1  C   UNL     1       0.417   1.186   0.532  1.00  0.00     0.094 C 
ATOM      2  C   UNL     1       0.066   1.774   1.901  1.00  0.00     0.089 C 
ATOM      3  C   UNL     1       1.137   1.367   2.914  1.00  0.00     0.186 C 
ATOM      4  C   UNL     1       2.502   1.858   2.424  1.00  0.00     0.090 C 
ATOM      5  C   UNL     1       2.781   1.261   1.044  1.00  0.00     0.111 C 
ATOM      6  C   UNL     1       2.041   1.308  -1.272  1.00  0.00     0.173 C 
ATOM      7  C   UNL     1       3.203   2.166  -1.790  1.00  0.00     0.069 C 
ATOM      8  C   UNL     1       4.298   2.151  -0.753  1.00  0.00    -0.016 A 
ATOM      9  C   UNL     1       4.112   1.745   0.525  1.00  0.00     0.037 A 
ATOM     10  N   UNL     1       5.287   1.848   1.218  1.00  0.00    -0.357 N 
ATOM     11  C   UNL     1       6.269   2.325   0.396  1.00  0.00     0.046 A 
ATOM     12  C   UNL     1       5.686   2.536  -0.881  1.00  0.00     0.003 A 
ATOM     13  C   UNL     1       6.442   3.026  -1.950  1.00  0.00     0.010 A 
ATOM     14  C   UNL     1       7.767   3.289  -1.705  1.00  0.00     0.001 A 
ATOM     15  C   UNL     1       8.340   3.084  -0.461  1.00  0.00     0.002 A 
ATOM     16  C   UNL     1       7.616   2.601   0.615  1.00  0.00     0.026 A 
ATOM     17  N   UNL     1       1.728   1.728   0.116  1.00  0.00    -0.274 NA
ATOM     18  H   UNL     1       5.413   1.603   2.211  1.00  0.00     0.166 HD
ENDROOT
BRANCH   1  19
ATOM     19  C   UNL     1      -0.627   1.595  -0.476  1.00  0.00    -0.031 A 
ATOM     20  C   UNL     1      -2.541   2.347  -2.323  1.00  0.00    -0.045 A 
ATOM     21  C   UNL     1      -1.540   3.231  -1.966  1.00  0.00     0.004 A 
ATOM     22  C   UNL     1      -2.585   1.087  -1.756  1.00  0.00     0.004 A 
ATOM     23  C   UNL     1      -0.586   2.857  -1.039  1.00  0.00     0.005 A 
ATOM     24  C   UNL     1      -1.628   0.711  -0.832  1.00  0.00     0.005 A 
BRANCH  20  25
ATOM     25  C   UNL     1      -3.584   2.756  -3.332  1.00  0.00     0.013 C 
ATOM     26  C   UNL     1      -4.341   3.981  -2.814  1.00  0.00     0.012 C 
ATOM     27  C   UNL     1      -2.903   3.100  -4.658  1.00  0.00     0.012 C 
ENDBRANCH  20  25
ENDBRANCH   1  19
BRANCH   3  28
ATOM     28  N   UNL     1       0.836   1.991   4.216  1.00  0.00    -0.341 N 
ATOM     29  H   UNL     1       0.416   2.918   4.062  1.00  0.00     0.346 HD
ATOM     30  H   UNL     1       1.708   2.100   4.752  1.00  0.00     0.346 HD
BRANCH  28  31
ATOM     31  C   UNL     1      -0.105   1.151   4.982  1.00  0.00     0.183 C 
ATOM     32  C   UNL     1      -0.086   1.290   6.505  1.00  0.00     0.071 C 
ATOM     33  C   UNL     1      -1.255   1.861   5.699  1.00  0.00     0.071 C 
ENDBRANCH  28  31
ENDBRANCH   3  28
BRANCH   6  34
ATOM     34  C   UNL     1       2.432  -0.147  -1.314  1.00  0.00     0.323 C 
ATOM     35  O   UNL     1       2.255  -0.849  -0.347  1.00  0.00    -0.250 OA
BRANCH  34  36
ATOM     36  O   UNL     1       2.978  -0.663  -2.427  1.00  0.00    -0.468 OA
ATOM     37  C   UNL     1       3.330  -2.071  -2.397  1.00  0.00     0.282 C 
ENDBRANCH  34  36
ENDBRANCH   6  34
TORSDOF 6
