REMARK SMILES CCn1c(Cc2ccc(OC)cc2)nnc1SCC(=O)Nc1sc2c(c1C(N)=O)CC[C@@H](C)C2
REMARK SMILES IDX 17 1 16 2 3 3 4 4 15 5 14 6 2 7 1 8 5 9 6 10 13 11 7 12
REMARK SMILES IDX 12 13 8 14 9 15 10 16 11 17 18 18 19 19 20 20 21 21 22 23
REMARK SMILES IDX 23 24 26 25 24 26 25 27 34 28 30 29 32 30 31 31 33 32 27 33
REMARK SMILES IDX 29 34 28 35
REMARK H PARENT 21 22 28 36 28 37
REMARK Flexibility Score: inf
ROOT
ATOM      1  S   UNL     1      -2.018   4.288   4.820  1.00  0.00    -0.076 SA
ENDROOT
BRANCH   1   2
ATOM      2  C   UNL     1      -2.061   3.220   3.419  1.00  0.00     0.191 A 
ATOM      3  N   UNL     1      -1.460   3.439   2.213  1.00  0.00    -0.306 N 
ATOM      4  C   UNL     1      -1.764   2.350   1.444  1.00  0.00     0.138 A 
ATOM      5  N   UNL     1      -2.675   2.063   3.338  1.00  0.00    -0.123 NA
ATOM      6  N   UNL     1      -2.502   1.558   2.169  1.00  0.00    -0.134 NA
BRANCH   3   7
ATOM      7  C   UNL     1      -0.656   4.600   1.822  1.00  0.00     0.123 C 
ATOM      8  C   UNL     1      -1.566   5.670   1.215  1.00  0.00     0.028 C 
ENDBRANCH   3   7
BRANCH   4   9
ATOM      9  C   UNL     1      -1.333   2.113   0.020  1.00  0.00     0.113 C 
BRANCH   9  10
ATOM     10  C   UNL     1      -0.017   1.378   0.010  1.00  0.00    -0.040 A 
ATOM     11  C   UNL     1       0.002  -0.004   0.002  1.00  0.00     0.008 A 
ATOM     12  C   UNL     1       1.170   2.088   0.002  1.00  0.00     0.008 A 
ATOM     13  C   UNL     1       1.207  -0.680  -0.013  1.00  0.00     0.047 A 
ATOM     14  C   UNL     1       2.377   1.417  -0.013  1.00  0.00     0.047 A 
ATOM     15  C   UNL     1       2.399   0.030  -0.021  1.00  0.00     0.118 A 
BRANCH  15  16
ATOM     16  O   UNL     1       3.586  -0.632  -0.035  1.00  0.00    -0.497 OA
ATOM     17  C   UNL     1       4.772   0.164  -0.042  1.00  0.00     0.278 C 
ENDBRANCH  15  16
ENDBRANCH   9  10
ENDBRANCH   4   9
ENDBRANCH   1   2
BRANCH   1  18
ATOM     18  C   UNL     1      -3.017   3.324   5.981  1.00  0.00     0.178 C 
BRANCH  18  19
ATOM     19  C   UNL     1      -3.122   4.065   7.289  1.00  0.00     0.235 C 
ATOM     20  O   UNL     1      -2.574   5.138   7.424  1.00  0.00    -0.274 OA
ATOM     21  N   UNL     1      -3.823   3.534   8.310  1.00  0.00    -0.316 N 
ATOM     22  H   UNL     1      -4.288   2.622   8.196  1.00  0.00     0.170 HD
BRANCH  21  23
ATOM     23  C   UNL     1      -3.919   4.215   9.514  1.00  0.00     0.108 A 
ATOM     24  S   UNL     1      -3.225   5.743   9.944  1.00  0.00    -0.122 S 
ATOM     25  C   UNL     1      -4.589   3.835  10.668  1.00  0.00     0.077 A 
ATOM     26  C   UNL     1      -3.821   5.869  11.607  1.00  0.00     0.011 A 
ATOM     27  C   UNL     1      -4.533   4.739  11.805  1.00  0.00    -0.019 A 
ATOM     28  C   UNL     1      -3.591   6.976  12.589  1.00  0.00     0.050 C 
ATOM     29  C   UNL     1      -5.214   4.464  13.140  1.00  0.00     0.038 C 
ATOM     30  C   UNL     1      -4.595   6.817  13.741  1.00  0.00    -0.009 C 
ATOM     31  C   UNL     1      -4.582   5.359  14.208  1.00  0.00     0.008 C 
ATOM     32  C   UNL     1      -4.196   7.734  14.899  1.00  0.00     0.008 C 
BRANCH  25  33
ATOM     33  C   UNL     1      -5.325   2.570  10.739  1.00  0.00     0.251 C 
ATOM     34  O   UNL     1      -4.762   1.557  11.112  1.00  0.00    -0.269 OA
ATOM     35  N   UNL     1      -6.627   2.527  10.390  1.00  0.00    -0.365 N 
ATOM     36  H   UNL     1      -7.104   3.383  10.074  1.00  0.00     0.159 HD
ATOM     37  H   UNL     1      -7.144   1.637  10.440  1.00  0.00     0.159 HD
ENDBRANCH  25  33
ENDBRANCH  21  23
ENDBRANCH  18  19
ENDBRANCH   1  18
TORSDOF 9
