REMARK SMILES O=C(NCc1cc2ccccc2s1)c1ccc(C[N@@H+]2CCC[C@H](c3ccccc3)CC2)[nH]c1=O
REMARK SMILES IDX 19 1 20 3 21 4 22 5 23 6 24 7 27 8 28 9 26 10 29 11 25 12
REMARK SMILES IDX 30 13 31 15 18 17 17 18 32 19 16 20 33 21 15 23 14 24 34 25
REMARK SMILES IDX 2 26 1 27 3 28 4 30 5 31 13 32 6 33 12 34 7 35 11 36 8 37
REMARK SMILES IDX 10 38 9 39
REMARK H PARENT 19 2 32 22 3 29
REMARK Flexibility Score: 80.00
ROOT
ATOM      1  N   UNL     1      -7.912   5.634  -7.556  1.00  0.00    -0.330 N 
ATOM      2  H   UNL     1      -8.299   5.822  -8.492  1.00  0.00     0.348 HD
ENDROOT
BRANCH   1   3
ATOM      3  C   UNL     1      -6.476   5.292  -7.673  1.00  0.00     0.262 C 
BRANCH   3   4
ATOM      4  C   UNL     1      -5.815   6.043  -8.735  1.00  0.00     0.062 C 
BRANCH   4   5
ATOM      5  C   UNL     1      -5.862   7.564  -8.468  1.00  0.00     0.014 C 
BRANCH   5   6
ATOM      6  C   UNL     1      -7.237   8.075  -8.804  1.00  0.00     0.025 C 
BRANCH   6   7
ATOM      7  C   UNL     1      -7.115   9.480  -9.335  1.00  0.00    -0.045 A 
ATOM      8  C   UNL     1      -6.894  12.059 -10.308  1.00  0.00     0.000 A 
ATOM      9  C   UNL     1      -6.454  11.761  -9.032  1.00  0.00     0.000 A 
ATOM     10  C   UNL     1      -7.445  11.067 -11.098  1.00  0.00     0.000 A 
ATOM     11  C   UNL     1      -6.569  10.473  -8.544  1.00  0.00     0.004 A 
ATOM     12  C   UNL     1      -7.556   9.778 -10.611  1.00  0.00     0.004 A 
ENDBRANCH   6   7
BRANCH   6  13
ATOM     13  C   UNL     1      -8.191   8.083  -7.592  1.00  0.00     0.070 CG0
ATOM     14  G   UNL     1      -8.052   6.813  -6.731  1.00  0.00     0.000 G0
ENDBRANCH   6  13
ENDBRANCH   5   6
ENDBRANCH   4   5
ENDBRANCH   3   4
ENDBRANCH   1   3
BRANCH   1  15
ATOM     15  C   UNL     1      -8.052   6.813  -6.731  1.00  0.00     0.263 CG0
ATOM     16  G   UNL     1      -8.191   8.083  -7.592  1.00  0.00     0.000 G0
ENDBRANCH   1  15
BRANCH   1  17
ATOM     17  C   UNL     1      -8.659   4.503  -6.960  1.00  0.00     0.317 C 
BRANCH  17  18
ATOM     18  C   UNL     1      -8.208   4.276  -5.540  1.00  0.00     0.073 A 
ATOM     19  N   UNL     1      -6.937   3.874  -5.302  1.00  0.00    -0.320 N 
ATOM     20  C   UNL     1      -9.084   4.477  -4.522  1.00  0.00     0.028 A 
ATOM     21  C   UNL     1      -6.498   3.662  -4.047  1.00  0.00     0.261 A 
ATOM     22  H   UNL     1      -6.295   3.729  -6.095  1.00  0.00     0.170 HD
ATOM     23  C   UNL     1      -8.685   4.267  -3.203  1.00  0.00     0.021 A 
ATOM     24  C   UNL     1      -7.377   3.859  -2.951  1.00  0.00     0.104 A 
ATOM     25  O   UNL     1      -5.350   3.301  -3.853  1.00  0.00    -0.269 OA
BRANCH  24  26
ATOM     26  C   UNL     1      -6.916   3.632  -1.572  1.00  0.00     0.257 C 
ATOM     27  O   UNL     1      -7.706   3.695  -0.649  1.00  0.00    -0.269 OA
ATOM     28  N   UNL     1      -5.619   3.354  -1.332  1.00  0.00    -0.347 N 
ATOM     29  H   UNL     1      -4.967   3.224  -2.118  1.00  0.00     0.164 HD
BRANCH  28  30
ATOM     30  C   UNL     1      -5.138   3.237   0.046  1.00  0.00     0.163 C 
BRANCH  30  31
ATOM     31  C   UNL     1      -3.664   2.924   0.039  1.00  0.00     0.025 A 
ATOM     32  S   UNL     1      -2.876   1.326   0.020  1.00  0.00    -0.138 S 
ATOM     33  C   UNL     1      -2.634   3.782   0.059  1.00  0.00     0.026 A 
ATOM     34  C   UNL     1      -1.182   1.854   0.022  1.00  0.00     0.035 A 
ATOM     35  C   UNL     1      -1.274   3.263   0.044  1.00  0.00    -0.007 A 
ATOM     36  C   UNL     1       0.031   1.199   0.012  1.00  0.00     0.019 A 
ATOM     37  C   UNL     1      -0.052   3.977   0.042  1.00  0.00     0.009 A 
ATOM     38  C   UNL     1       1.200   1.933   0.012  1.00  0.00     0.001 A 
ATOM     39  C   UNL     1       1.137   3.320   0.027  1.00  0.00     0.001 A 
ENDBRANCH  30  31
ENDBRANCH  28  30
ENDBRANCH  24  26
ENDBRANCH  17  18
ENDBRANCH   1  17
TORSDOF 6
