REMARK SMILES CC(C)CCSc1nc2n(n1)[C@@H](c1cc(C(C)(C)C)c(O)c(C(C)(C)C)c1)C1=C(CCCC1=O)N2
REMARK SMILES IDX 6 1 5 2 4 3 2 4 1 5 3 6 7 7 11 8 8 9 10 10 9 11 12 12 35 13
REMARK SMILES IDX 28 14 29 15 33 17 30 18 32 19 34 20 31 21 13 22 14 23 27 24
REMARK SMILES IDX 15 25 22 26 20 27 16 28 17 29 18 30 19 31 23 32 24 33 25 34
REMARK SMILES IDX 26 35 21 36
REMARK H PARENT 35 16 21 37
REMARK Flexibility Score: inf
ROOT
ATOM      1  S   UNL     1      -0.953   2.097   7.431  1.00  0.00    -0.084 SA
ENDROOT
BRANCH   1   2
ATOM      2  C   UNL     1       0.819   1.824   7.708  1.00  0.00     0.078 C 
BRANCH   2   3
ATOM      3  C   UNL     1       1.106   1.819   9.211  1.00  0.00     0.014 C 
BRANCH   3   4
ATOM      4  C   UNL     1       2.600   1.589   9.444  1.00  0.00    -0.017 C 
ATOM      5  C   UNL     1       3.392   2.773   8.885  1.00  0.00     0.007 C 
ATOM      6  C   UNL     1       2.868   1.460  10.945  1.00  0.00     0.007 C 
ENDBRANCH   3   4
ENDBRANCH   2   3
ENDBRANCH   1   2
BRANCH   1   7
ATOM      7  C   UNL     1      -1.119   2.076   5.678  1.00  0.00     0.210 A 
ATOM      8  N   UNL     1      -2.244   2.236   5.014  1.00  0.00    -0.141 NA
ATOM      9  N   UNL     1      -0.119   1.894   4.803  1.00  0.00    -0.185 NA
ATOM     10  N   UNL     1      -1.927   2.151   3.659  1.00  0.00    -0.218 N 
ATOM     11  C   UNL     1      -0.591   1.933   3.587  1.00  0.00     0.227 A 
ATOM     12  C   UNL     1      -2.784   2.265   2.490  1.00  0.00     0.177 C 
ATOM     13  N   UNL     1       0.053   1.792   2.368  1.00  0.00    -0.328 N 
ATOM     14  C   UNL     1      -2.052   1.774   1.260  1.00  0.00     0.044 C 
ATOM     15  C   UNL     1      -0.718   1.572   1.252  1.00  0.00     0.027 C 
ATOM     16  H   UNL     1       1.079   1.849   2.301  1.00  0.00     0.169 HD
ATOM     17  C   UNL     1      -2.825   1.536   0.109  1.00  0.00     0.163 C 
ATOM     18  C   UNL     1      -0.013   1.086   0.008  1.00  0.00     0.055 C 
ATOM     19  C   UNL     1      -2.194   1.079  -1.177  1.00  0.00     0.081 C 
ATOM     20  O   UNL     1      -4.027   1.703   0.155  1.00  0.00    -0.294 OA
ATOM     21  C   UNL     1      -0.751   1.592  -1.233  1.00  0.00     0.014 C 
BRANCH  12  22
ATOM     22  C   UNL     1      -3.176   3.708   2.295  1.00  0.00    -0.018 A 
ATOM     23  C   UNL     1      -4.509   4.072   2.333  1.00  0.00     0.014 A 
ATOM     24  C   UNL     1      -2.201   4.665   2.085  1.00  0.00     0.014 A 
ATOM     25  C   UNL     1      -4.871   5.393   2.156  1.00  0.00    -0.000 A 
ATOM     26  C   UNL     1      -2.558   5.987   1.901  1.00  0.00    -0.000 A 
ATOM     27  C   UNL     1      -3.895   6.355   1.939  1.00  0.00     0.123 A 
BRANCH  25  28
ATOM     28  C   UNL     1      -6.324   5.790   2.198  1.00  0.00    -0.010 C 
ATOM     29  C   UNL     1      -7.184   4.549   2.450  1.00  0.00     0.016 C 
ATOM     30  C   UNL     1      -6.544   6.800   3.325  1.00  0.00     0.016 C 
ATOM     31  C   UNL     1      -6.719   6.422   0.862  1.00  0.00     0.016 C 
ENDBRANCH  25  28
BRANCH  26  32
ATOM     32  C   UNL     1      -1.495   7.029   1.666  1.00  0.00    -0.010 C 
ATOM     33  C   UNL     1      -0.117   6.363   1.671  1.00  0.00     0.016 C 
ATOM     34  C   UNL     1      -1.731   7.703   0.313  1.00  0.00     0.016 C 
ATOM     35  C   UNL     1      -1.557   8.080   2.776  1.00  0.00     0.016 C 
ENDBRANCH  26  32
BRANCH  27  36
ATOM     36  O   UNL     1      -4.248   7.656   1.764  1.00  0.00    -0.507 OA
ATOM     37  H   UNL     1      -3.858   7.910   0.891  1.00  0.00     0.293 HD
ENDBRANCH  27  36
ENDBRANCH  12  22
ENDBRANCH   1   7
TORSDOF 8
