REMARK SMILES C=CCc1cccc(/C=N/NC(=O)CSc2nnc(CNc3ccccc3)n2-c2ccccc2)c1O
REMARK SMILES IDX 14 1 12 2 11 3 13 5 10 6 9 7 8 8 4 9 35 10 5 11 6 12 7 13
REMARK SMILES IDX 3 14 2 15 1 16 36 17 15 19 16 20 28 21 17 22 19 23 18 24
REMARK SMILES IDX 29 25 34 26 30 27 33 28 31 29 32 30 20 31 21 32 22 34 27 35
REMARK SMILES IDX 23 36 26 37 24 38 25 39
REMARK H PARENT 11 4 36 18 21 33
REMARK Flexibility Score: inf
ROOT
ATOM      1  C   UNL     1       6.302  -4.721  -0.081  1.00  0.00     0.180 C 
ENDROOT
BRANCH   1   2
ATOM      2  C   UNL     1       4.982  -3.993  -0.065  1.00  0.00     0.250 C 
ATOM      3  N   UNL     1       4.955  -2.646  -0.058  1.00  0.00    -0.246 N 
ATOM      4  H   UNL     1       5.837  -2.113  -0.064  1.00  0.00     0.193 HD
ATOM      5  O   UNL     1       3.944  -4.621  -0.059  1.00  0.00    -0.272 OA
BRANCH   3   6
ATOM      6  N   UNL     1       3.728  -1.970  -0.043  1.00  0.00    -0.181 NA
ATOM      7  C   UNL     1       3.702  -0.672  -0.037  1.00  0.00     0.145 C 
BRANCH   7   8
ATOM      8  C   UNL     1       2.412   0.039  -0.021  1.00  0.00     0.037 A 
ATOM      9  C   UNL     1       0.002  -0.004   0.002  1.00  0.00    -0.002 A 
ATOM     10  C   UNL     1       1.210  -0.682  -0.013  1.00  0.00     0.127 A 
ATOM     11  C   UNL     1      -0.017   1.378   0.010  1.00  0.00     0.008 A 
ATOM     12  C   UNL     1       1.168   2.094   0.002  1.00  0.00     0.001 A 
ATOM     13  C   UNL     1       2.379   1.435  -0.013  1.00  0.00     0.013 A 
BRANCH   9  14
ATOM     14  C   UNL     1      -1.293  -0.774   0.010  1.00  0.00     0.066 C 
BRANCH  14  15
ATOM     15  C   UNL     1      -1.649  -1.145   1.427  1.00  0.00    -0.030 C 
ATOM     16  C   UNL     1      -2.815  -0.807   1.919  1.00  0.00     0.004 C 
ENDBRANCH  14  15
ENDBRANCH   9  14
BRANCH  10  17
ATOM     17  O   UNL     1       1.229  -2.040  -0.020  1.00  0.00    -0.507 OA
ATOM     18  H   UNL     1       0.694  -2.298  -0.812  1.00  0.00     0.293 HD
ENDBRANCH  10  17
ENDBRANCH   7   8
ENDBRANCH   3   6
ENDBRANCH   1   2
BRANCH   1  19
ATOM     19  S   UNL     1       6.007  -6.506  -0.088  1.00  0.00    -0.076 SA
BRANCH  19  20
ATOM     20  C   UNL     1       7.669  -7.091  -0.106  1.00  0.00     0.196 A 
ATOM     21  N   UNL     1       8.072  -8.398  -0.117  1.00  0.00    -0.273 N 
ATOM     22  N   UNL     1       8.756  -6.354  -0.118  1.00  0.00    -0.123 NA
ATOM     23  C   UNL     1       9.441  -8.363  -0.129  1.00  0.00     0.157 A 
ATOM     24  N   UNL     1       9.796  -7.109  -0.126  1.00  0.00    -0.132 NA
BRANCH  21  25
ATOM     25  C   UNL     1       7.253  -9.537  -0.115  1.00  0.00     0.049 A 
ATOM     26  C   UNL     1       6.425  -9.800  -1.198  1.00  0.00     0.027 A 
ATOM     27  C   UNL     1       7.274 -10.407   0.966  1.00  0.00     0.027 A 
ATOM     28  C   UNL     1       5.621 -10.922  -1.194  1.00  0.00     0.002 A 
ATOM     29  C   UNL     1       6.463 -11.525   0.967  1.00  0.00     0.002 A 
ATOM     30  C   UNL     1       5.640 -11.784  -0.113  1.00  0.00     0.000 A 
ENDBRANCH  21  25
BRANCH  23  31
ATOM     31  C   UNL     1      10.365  -9.553  -0.144  1.00  0.00     0.191 C 
BRANCH  31  32
ATOM     32  N   UNL     1      10.652  -9.931  -1.530  1.00  0.00    -0.378 N 
ATOM     33  H   UNL     1      10.234  -9.399  -2.307  1.00  0.00     0.161 HD
BRANCH  32  34
ATOM     34  C   UNL     1      11.492 -11.014  -1.799  1.00  0.00     0.034 A 
ATOM     35  C   UNL     1      11.764 -11.374  -3.113  1.00  0.00     0.026 A 
ATOM     36  C   UNL     1      12.061 -11.731  -0.754  1.00  0.00     0.026 A 
ATOM     37  C   UNL     1      12.595 -12.446  -3.375  1.00  0.00     0.002 A 
ATOM     38  C   UNL     1      12.887 -12.804  -1.023  1.00  0.00     0.002 A 
ATOM     39  C   UNL     1      13.156 -13.160  -2.332  1.00  0.00     0.000 A 
ENDBRANCH  32  34
ENDBRANCH  31  32
ENDBRANCH  23  31
ENDBRANCH  19  20
ENDBRANCH   1  19
TORSDOF 12
