REMARK SMILES Oc1ccccc1CN1CC[N@H+](Cc2ccccc2O)[C@@H]1c1c(O)ccc2cc(Br)ccc12
REMARK SMILES IDX 9 1 10 2 11 3 12 4 21 5 8 7 7 8 5 9 6 10 4 11 3 12 2 13 1 14
REMARK SMILES IDX 22 16 23 17 33 18 25 19 27 20 32 21 26 22 28 23 31 24 29 25
REMARK SMILES IDX 30 26 24 27 13 29 14 30 19 31 15 32 18 33 16 34 17 35 20 36
REMARK H PARENT 12 6 1 15 24 28 20 37
REMARK Flexibility Score: inf
ROOT
ATOM      1  N   UNL     1      -1.426   5.848  -0.678  1.00  0.00    -0.240 NA
ATOM      2  C   UNL     1      -0.833   7.024  -1.372  1.00  0.00     0.152 C 
ATOM      3  C   UNL     1       0.397   6.400  -2.077  1.00  0.00     0.280 C 
ATOM      4  N   UNL     1       0.879   5.391  -1.106  1.00  0.00    -0.311 N 
ATOM      5  C   UNL     1      -0.261   5.054  -0.232  1.00  0.00     0.296 C 
ATOM      6  H   UNL     1       1.663   5.765  -0.552  1.00  0.00     0.350 HD
ENDROOT
BRANCH   1   7
ATOM      7  C   UNL     1      -2.245   6.269   0.467  1.00  0.00     0.130 C 
BRANCH   7   8
ATOM      8  C   UNL     1      -3.361   7.160  -0.015  1.00  0.00     0.008 A 
ATOM      9  C   UNL     1      -4.294   9.348  -0.294  1.00  0.00     0.001 A 
ATOM     10  C   UNL     1      -3.271   8.530   0.148  1.00  0.00     0.009 A 
ATOM     11  C   UNL     1      -5.409   8.798  -0.900  1.00  0.00     0.004 A 
ATOM     12  C   UNL     1      -5.503   7.430  -1.066  1.00  0.00     0.046 A 
ATOM     13  C   UNL     1      -4.476   6.607  -0.627  1.00  0.00     0.120 A 
BRANCH  13  14
ATOM     14  O   UNL     1      -4.563   5.261  -0.794  1.00  0.00    -0.508 OA
ATOM     15  H   UNL     1      -4.699   5.133  -1.766  1.00  0.00     0.293 HD
ENDBRANCH  13  14
ENDBRANCH   7   8
ENDBRANCH   1   7
BRANCH   5  16
ATOM     16  C   UNL     1      -0.572   3.583  -0.345  1.00  0.00     0.075 A 
ATOM     17  C   UNL     1      -1.279   3.111  -1.414  1.00  0.00     0.126 A 
ATOM     18  C   UNL     1      -0.138   2.691   0.649  1.00  0.00    -0.004 A 
ATOM     19  C   UNL     1      -1.575   1.750  -1.533  1.00  0.00     0.047 A 
ATOM     20  C   UNL     1      -0.445   1.312   0.529  1.00  0.00    -0.016 A 
ATOM     21  C   UNL     1       0.592   3.140   1.763  1.00  0.00     0.010 A 
ATOM     22  C   UNL     1      -1.169   0.861  -0.588  1.00  0.00     0.012 A 
ATOM     23  C   UNL     1      -0.004   0.420   1.521  1.00  0.00     0.024 A 
ATOM     24  C   UNL     1       0.998   2.248   2.707  1.00  0.00     0.016 A 
ATOM     25  C   UNL     1       0.701   0.891   2.586  1.00  0.00     0.018 A 
ATOM     26  Br  UNL     1       1.286  -0.313   3.922  1.00  0.00    -0.051 Br
BRANCH  17  27
ATOM     27  O   UNL     1      -1.699   3.976  -2.374  1.00  0.00    -0.507 OA
ATOM     28  H   UNL     1      -0.878   4.427  -2.694  1.00  0.00     0.293 HD
ENDBRANCH  17  27
ENDBRANCH   5  16
BRANCH   4  29
ATOM     29  C   UNL     1       1.385   4.196  -1.795  1.00  0.00     0.304 C 
BRANCH  29  30
ATOM     30  C   UNL     1       2.485   4.593  -2.746  1.00  0.00     0.048 A 
ATOM     31  C   UNL     1       3.767   4.824  -2.267  1.00  0.00     0.124 A 
ATOM     32  C   UNL     1       2.217   4.734  -4.094  1.00  0.00     0.013 A 
ATOM     33  C   UNL     1       4.778   5.185  -3.146  1.00  0.00     0.046 A 
ATOM     34  C   UNL     1       3.226   5.098  -4.966  1.00  0.00     0.001 A 
ATOM     35  C   UNL     1       4.505   5.323  -4.493  1.00  0.00     0.004 A 
BRANCH  31  36
ATOM     36  O   UNL     1       4.032   4.692  -0.941  1.00  0.00    -0.507 OA
ATOM     37  H   UNL     1       3.755   3.768  -0.717  1.00  0.00     0.293 HD
ENDBRANCH  31  36
ENDBRANCH  29  30
ENDBRANCH   4  29
TORSDOF 8
