REMARK SMILES C=CC(C)(C)c1c2c(c(O)c3c(O)c4ccc(=O)c(O)c-4oc13)C=CC(C)(C)O2
REMARK SMILES IDX 27 1 26 2 25 3 24 4 8 5 9 6 11 7 12 8 14 9 15 10 16 11 17 12
REMARK SMILES IDX 18 13 19 14 21 15 22 16 23 17 6 18 7 19 29 20 28 21 3 22
REMARK SMILES IDX 4 23 5 24 2 25 1 26 10 27 13 29 20 31
REMARK H PARENT 10 28 13 30 20 32
REMARK Flexibility Score: inf
ROOT
ATOM      1  C   UNL     1      -2.111   9.815  -0.274  1.00  0.00     0.061 C 
ATOM      2  C   UNL     1      -2.143   8.327  -0.629  1.00  0.00     0.122 C 
ATOM      3  C   UNL     1      -3.478   7.751  -0.237  1.00  0.00     0.021 C 
ATOM      4  C   UNL     1      -3.578   6.463   0.087  1.00  0.00     0.015 C 
ATOM      5  C   UNL     1      -2.349   5.643   0.062  1.00  0.00     0.060 A 
ATOM      6  C   UNL     1      -2.408   4.254   0.051  1.00  0.00     0.141 A 
ATOM      7  C   UNL     1      -1.210   3.516   0.028  1.00  0.00     0.103 A 
ATOM      8  C   UNL     1      -1.243   2.101   0.021  1.00  0.00     0.141 A 
ATOM      9  C   UNL     1      -0.017   1.403  -0.006  1.00  0.00     0.064 A 
ATOM     10  C   UNL     1       0.002  -0.004  -0.019  1.00  0.00     0.020 A 
ATOM     11  C   UNL     1       1.187  -0.668  -0.038  1.00  0.00     0.057 A 
ATOM     12  C   UNL     1       2.399   0.044  -0.045  1.00  0.00     0.224 A 
ATOM     13  O   UNL     1       3.558  -0.618  -0.063  1.00  0.00    -0.286 OA
ATOM     14  C   UNL     1       2.397   1.445  -0.033  1.00  0.00     0.207 A 
ATOM     15  C   UNL     1       1.195   2.130  -0.013  1.00  0.00     0.184 A 
ATOM     16  O   UNL     1       1.186   3.482  -0.003  1.00  0.00    -0.451 OA
ATOM     17  C   UNL     1       0.033   4.184   0.017  1.00  0.00     0.150 A 
ATOM     18  C   UNL     1       0.070   5.571   0.027  1.00  0.00     0.048 A 
ATOM     19  C   UNL     1      -1.104   6.300   0.049  1.00  0.00     0.139 A 
ATOM     20  O   UNL     1      -1.086   7.656   0.058  1.00  0.00    -0.483 OA
ATOM     21  C   UNL     1      -1.947   8.164  -2.138  1.00  0.00     0.061 C 
ENDROOT
BRANCH  18  22
ATOM     22  C   UNL     1       1.397   6.286   0.014  1.00  0.00     0.015 C 
ATOM     23  C   UNL     1       2.224   5.804  -1.179  1.00  0.00     0.021 C 
ATOM     24  C   UNL     1       1.163   7.793  -0.103  1.00  0.00     0.021 C 
BRANCH  22  25
ATOM     25  C   UNL     1       2.139   5.991   1.292  1.00  0.00    -0.024 C 
ATOM     26  C   UNL     1       1.600   5.213   2.198  1.00  0.00     0.005 C 
ENDBRANCH  22  25
ENDBRANCH  18  22
BRANCH   6  27
ATOM     27  O   UNL     1      -3.606   3.619   0.062  1.00  0.00    -0.506 OA
ATOM     28  H   UNL     1      -4.089   3.978  -0.724  1.00  0.00     0.293 HD
ENDBRANCH   6  27
BRANCH   8  29
ATOM     29  O   UNL     1      -2.417   1.437   0.033  1.00  0.00    -0.506 OA
ATOM     30  H   UNL     1      -2.907   1.786  -0.753  1.00  0.00     0.293 HD
ENDBRANCH   8  29
BRANCH  14  31
ATOM     31  O   UNL     1       3.574   2.131  -0.041  1.00  0.00    -0.502 OA
ATOM     32  H   UNL     1       4.051   1.806  -0.845  1.00  0.00     0.293 HD
ENDBRANCH  14  31
TORSDOF 5
