REMARK SMILES COc1ccc2[nH]c3c(c2c1)CC[NH2+][C@@H]3c1ccc(OC)c(COc2cc(C)c(Cl)cc2C(C)C)c1
REMARK SMILES IDX 23 1 24 2 25 3 28 4 27 5 29 6 26 7 31 8 30 9 32 10 33 11
REMARK SMILES IDX 34 12 35 13 22 14 19 15 36 16 18 17 16 18 17 19 20 20 21 21
REMARK SMILES IDX 15 22 8 23 14 24 7 25 9 26 13 27 6 30 10 32 12 33 5 34 11 35
REMARK SMILES IDX 4 36 3 37 2 38 1 39
REMARK H PARENT 14 28 14 29 7 31
REMARK Flexibility Score: inf
ROOT
ATOM      1  C   UNL     1      -2.000   2.479   3.502  1.00  0.00     0.269 C 
ENDROOT
BRANCH   1   2
ATOM      2  O   UNL     1      -2.599   3.245   4.548  1.00  0.00    -0.488 OA
BRANCH   2   3
ATOM      3  C   UNL     1      -3.169   2.554   5.571  1.00  0.00     0.123 A 
ATOM      4  C   UNL     1      -3.713  -1.041   6.601  1.00  0.00     0.046 C 
ATOM      5  C   UNL     1      -3.732   0.466   6.606  1.00  0.00    -0.029 A 
ATOM      6  C   UNL     1      -4.329   1.146   7.652  1.00  0.00     0.044 A 
ATOM      7  C   UNL     1      -3.156   1.167   5.563  1.00  0.00     0.051 A 
ATOM      8  C   UNL     1      -4.348   2.530   7.658  1.00  0.00     0.028 A 
ATOM      9  Cl  UNL     1      -5.056   0.263   8.957  1.00  0.00    -0.084 Cl
ATOM     10  C   UNL     1      -3.769   3.234   6.620  1.00  0.00    -0.002 A 
BRANCH  10  11
ATOM     11  C   UNL     1      -3.789   4.741   6.628  1.00  0.00     0.017 C 
ATOM     12  C   UNL     1      -5.238   5.232   6.644  1.00  0.00     0.012 C 
ATOM     13  C   UNL     1      -3.063   5.254   7.874  1.00  0.00     0.012 C 
ENDBRANCH  10  11
ENDBRANCH   2   3
ENDBRANCH   1   2
BRANCH   1  14
ATOM     14  C   UNL     1      -1.425   3.409   2.465  1.00  0.00     0.032 A 
ATOM     15  C   UNL     1      -0.787   2.892   1.346  1.00  0.00     0.125 A 
ATOM     16  C   UNL     1      -1.531   4.776   2.627  1.00  0.00     0.021 A 
ATOM     17  C   UNL     1      -0.253   3.751   0.396  1.00  0.00     0.047 A 
ATOM     18  C   UNL     1      -1.003   5.630   1.677  1.00  0.00     0.016 A 
ATOM     19  C   UNL     1      -0.368   5.117   0.561  1.00  0.00     0.014 A 
BRANCH  15  20
ATOM     20  O   UNL     1      -0.682   1.547   1.184  1.00  0.00    -0.496 OA
ATOM     21  C   UNL     1      -0.013   1.086   0.008  1.00  0.00     0.278 C 
ENDBRANCH  15  20
BRANCH  18  22
ATOM     22  C   UNL     1      -1.120   7.122   1.857  1.00  0.00     0.261 C 
ATOM     23  C   UNL     1      -2.253   7.648   1.008  1.00  0.00     0.083 A 
ATOM     24  N   UNL     1       0.141   7.764   1.426  1.00  0.00    -0.335 N 
ATOM     25  N   UNL     1      -3.498   7.100   0.857  1.00  0.00    -0.353 N 
ATOM     26  C   UNL     1      -2.157   8.775   0.268  1.00  0.00    -0.007 A 
ATOM     27  C   UNL     1      -0.014   9.233   1.387  1.00  0.00     0.266 C 
ATOM     28  H   UNL     1       0.892   7.519   2.087  1.00  0.00     0.347 HD
ATOM     29  H   UNL     1       0.395   7.424   0.488  1.00  0.00     0.347 HD
ATOM     30  C   UNL     1      -4.241   7.869   0.004  1.00  0.00     0.046 A 
ATOM     31  H   UNL     1      -3.825   6.237   1.315  1.00  0.00     0.166 HD
ATOM     32  C   UNL     1      -3.426   8.957  -0.402  1.00  0.00     0.007 A 
ATOM     33  C   UNL     1      -0.916   9.630   0.211  1.00  0.00     0.099 C 
ATOM     34  C   UNL     1      -5.546   7.742  -0.465  1.00  0.00     0.030 A 
ATOM     35  C   UNL     1      -3.903   9.932  -1.285  1.00  0.00     0.057 A 
ATOM     36  C   UNL     1      -6.002   8.716  -1.336  1.00  0.00     0.048 A 
ATOM     37  C   UNL     1      -5.205   9.782  -1.737  1.00  0.00     0.119 A 
BRANCH  37  38
ATOM     38  O   UNL     1      -5.717  10.704  -2.596  1.00  0.00    -0.497 OA
ATOM     39  C   UNL     1      -7.063  10.505  -3.034  1.00  0.00     0.278 C 
ENDBRANCH  37  38
ENDBRANCH  18  22
ENDBRANCH   1  14
TORSDOF 7
