REMARK SMILES O=C(CN1C(=O)c2ccccc2C1=O)NCCCCCCCNc1c2c([nH+]c3cc(Cl)ccc13)CCCC2
REMARK SMILES IDX 18 1 17 2 16 3 15 4 2 5 1 6 3 8 4 9 9 10 8 11 10 12 7 13
REMARK SMILES IDX 11 14 12 15 5 16 13 17 6 18 14 19 19 20 20 21 21 22 22 23
REMARK SMILES IDX 23 24 24 26 25 27 34 28 26 29 38 30 28 31 33 32 35 33 27 34
REMARK SMILES IDX 37 35 29 36 32 37 36 38 30 40 31 41
REMARK H PARENT 15 7 23 25 27 39
REMARK Flexibility Score: inf
ROOT
ATOM      1  C   UNL     1      -1.627   5.796   4.386  1.00  0.00     0.002 C 
ENDROOT
BRANCH   1   2
ATOM      2  C   UNL     1      -0.925   5.278   3.128  1.00  0.00     0.021 C 
BRANCH   2   3
ATOM      3  C   UNL     1      -0.673   3.776   3.268  1.00  0.00     0.116 C 
BRANCH   3   4
ATOM      4  N   UNL     1      -0.001   3.280   2.064  1.00  0.00    -0.355 N 
ATOM      5  C   UNL     1       0.323   1.976   1.963  1.00  0.00     0.240 C 
ATOM      6  O   UNL     1       0.059   1.212   2.868  1.00  0.00    -0.273 OA
ATOM      7  H   UNL     1       0.224   3.928   1.296  1.00  0.00     0.163 HD
BRANCH   5   8
ATOM      8  C   UNL     1       1.014   1.465   0.724  1.00  0.00     0.229 C 
BRANCH   8   9
ATOM      9  N   UNL     1       1.256   0.026   0.858  1.00  0.00    -0.265 N 
ATOM     10  C   UNL     1       1.400  -4.601   0.985  1.00  0.00     0.001 A 
ATOM     11  C   UNL     1       0.578  -3.560   0.582  1.00  0.00     0.015 A 
ATOM     12  C   UNL     1       2.628  -4.341   1.562  1.00  0.00     0.001 A 
ATOM     13  C   UNL     1       0.991  -2.250   0.761  1.00  0.00     0.053 A 
ATOM     14  C   UNL     1       3.055  -3.035   1.748  1.00  0.00     0.015 A 
ATOM     15  C   UNL     1       2.244  -1.984   1.351  1.00  0.00     0.053 A 
ATOM     16  C   UNL     1       0.397  -0.930   0.463  1.00  0.00     0.262 C 
ATOM     17  C   UNL     1       2.370  -0.512   1.386  1.00  0.00     0.262 C 
ATOM     18  O   UNL     1      -0.687  -0.740  -0.052  1.00  0.00    -0.269 OA
ATOM     19  O   UNL     1       3.320   0.107   1.822  1.00  0.00    -0.269 OA
ENDBRANCH   8   9
ENDBRANCH   5   8
ENDBRANCH   3   4
ENDBRANCH   2   3
ENDBRANCH   1   2
BRANCH   1  20
ATOM     20  C   UNL     1      -1.880   7.299   4.246  1.00  0.00     0.000 C 
BRANCH  20  21
ATOM     21  C   UNL     1      -2.582   7.817   5.503  1.00  0.00     0.002 C 
BRANCH  21  22
ATOM     22  C   UNL     1      -2.834   9.319   5.364  1.00  0.00     0.021 C 
BRANCH  22  23
ATOM     23  C   UNL     1      -3.536   9.837   6.621  1.00  0.00     0.113 C 
BRANCH  23  24
ATOM     24  N   UNL     1      -3.779  11.280   6.487  1.00  0.00    -0.384 N 
ATOM     25  H   UNL     1      -3.444  11.857   5.702  1.00  0.00     0.160 HD
BRANCH  24  26
ATOM     26  C   UNL     1      -4.518  11.761   7.557  1.00  0.00     0.058 A 
ATOM     27  C   UNL     1      -5.899  11.901   7.463  1.00  0.00     0.043 A 
ATOM     28  C   UNL     1      -3.886  12.115   8.770  1.00  0.00     0.070 A 
ATOM     29  C   UNL     1      -6.614  12.384   8.544  1.00  0.00     0.185 A 
ATOM     30  C   UNL     1      -6.550  11.515   6.161  1.00  0.00     0.044 C 
ATOM     31  C   UNL     1      -4.684  12.609   9.829  1.00  0.00     0.214 A 
ATOM     32  C   UNL     1      -2.499  12.004   8.937  1.00  0.00     0.019 A 
ATOM     33  C   UNL     1      -8.114  12.549   8.504  1.00  0.00     0.109 C 
ATOM     34  N   UNL     1      -6.051  12.749   9.733  1.00  0.00    -0.208 N 
ATOM     35  C   UNL     1      -8.053  11.316   6.350  1.00  0.00     0.006 C 
ATOM     36  C   UNL     1      -4.065  12.970  11.038  1.00  0.00     0.100 A 
ATOM     37  C   UNL     1      -1.932  12.363  10.122  1.00  0.00     0.022 A 
ATOM     38  C   UNL     1      -8.616  12.552   7.062  1.00  0.00     0.011 C 
ATOM     39  H   UNL     1      -6.617  13.109  10.515  1.00  0.00     0.454 HD
ATOM     40  C   UNL     1      -2.715  12.845  11.170  1.00  0.00     0.047 A 
ATOM     41  Cl  UNL     1      -1.957  13.293  12.667  1.00  0.00    -0.084 Cl
ENDBRANCH  24  26
ENDBRANCH  23  24
ENDBRANCH  22  23
ENDBRANCH  21  22
ENDBRANCH  20  21
ENDBRANCH   1  20
TORSDOF 11
