REMARK SMILES C[C@@H](c1ccc(-c2ccc(=O)n(-c3ccc(F)cc3)c2)cc1)[C@H]([NH3+])C(=O)N1CC[C@H](F)C1
REMARK SMILES IDX 1 1 2 2 3 3 22 4 4 5 21 6 5 7 6 8 7 9 20 10 8 11 12 12 9 13
REMARK SMILES IDX 10 14 11 15 13 16 19 17 14 18 18 19 15 20 16 21 17 22 23 23
REMARK SMILES IDX 25 24 26 25 27 26 32 27 28 28 30 29 29 30 31 31 24 32
REMARK H PARENT 24 33 24 34 24 35
REMARK Flexibility Score: inf
ROOT
ATOM      1  C   UNL     1       7.120  -4.628   1.496  1.00  0.00     0.020 C 
ATOM      2  C   UNL     1       7.258  -3.332   0.695  1.00  0.00     0.084 C 
ENDROOT
BRANCH   2   3
ATOM      3  C   UNL     1       5.920  -2.642   0.622  1.00  0.00    -0.039 A 
ATOM      4  C   UNL     1       5.282  -2.252   1.785  1.00  0.00     0.005 A 
ATOM      5  C   UNL     1       5.334  -2.402  -0.608  1.00  0.00     0.005 A 
ATOM      6  C   UNL     1       4.059  -1.615   1.724  1.00  0.00     0.009 A 
ATOM      7  C   UNL     1       4.109  -1.771  -0.681  1.00  0.00     0.009 A 
ATOM      8  C   UNL     1       3.462  -1.376   0.488  1.00  0.00    -0.017 A 
BRANCH   8   9
ATOM      9  C   UNL     1       2.144  -0.697   0.417  1.00  0.00    -0.001 A 
ATOM     10  C   UNL     1       1.033  -1.301   0.930  1.00  0.00     0.103 A 
ATOM     11  C   UNL     1       2.034   0.576  -0.183  1.00  0.00     0.016 A 
ATOM     12  N   UNL     1      -0.176  -0.687   0.869  1.00  0.00    -0.284 N 
ATOM     13  C   UNL     1       0.815   1.181  -0.239  1.00  0.00     0.073 A 
ATOM     14  C   UNL     1      -0.306   0.527   0.301  1.00  0.00     0.255 A 
ATOM     15  O   UNL     1      -1.403   1.060   0.251  1.00  0.00    -0.269 OA
BRANCH  12  16
ATOM     16  C   UNL     1      -1.303  -1.325   1.402  1.00  0.00     0.049 A 
ATOM     17  C   UNL     1      -1.796  -2.478   0.807  1.00  0.00     0.030 A 
ATOM     18  C   UNL     1      -1.926  -0.807   2.531  1.00  0.00     0.030 A 
ATOM     19  C   UNL     1      -2.908  -3.106   1.335  1.00  0.00     0.041 A 
ATOM     20  C   UNL     1      -3.039  -1.435   3.053  1.00  0.00     0.041 A 
ATOM     21  C   UNL     1      -3.530  -2.586   2.458  1.00  0.00     0.123 A 
ATOM     22  F   UNL     1      -4.617  -3.201   2.972  1.00  0.00    -0.207 F 
ENDBRANCH  12  16
ENDBRANCH   8   9
ENDBRANCH   2   3
BRANCH   2  23
ATOM     23  C   UNL     1       8.269  -2.413   1.382  1.00  0.00     0.278 C 
BRANCH  23  24
ATOM     24  C   UNL     1       9.628  -3.064   1.372  1.00  0.00     0.281 C 
ATOM     25  O   UNL     1      10.321  -3.007   0.379  1.00  0.00    -0.268 OA
BRANCH  24  26
ATOM     26  N   UNL     1      10.073  -3.710   2.468  1.00  0.00    -0.335 N 
ATOM     27  C   UNL     1      11.412  -4.305   2.630  1.00  0.00     0.157 C 
ATOM     28  C   UNL     1       9.306  -3.933   3.702  1.00  0.00     0.123 C 
ATOM     29  C   UNL     1      11.230  -5.405   3.706  1.00  0.00     0.187 C 
ATOM     30  C   UNL     1      10.207  -4.738   4.663  1.00  0.00     0.061 C 
ATOM     31  F   UNL     1      12.437  -5.667   4.364  1.00  0.00    -0.245 F 
ENDBRANCH  24  26
ENDBRANCH  23  24
BRANCH  23  32
ATOM     32  N   UNL     1       8.310  -1.126   0.665  1.00  0.00    -0.347 N 
ATOM     33  H   UNL     1       7.379  -0.686   0.685  1.00  0.00     0.345 HD
ATOM     34  H   UNL     1       8.597  -1.281  -0.312  1.00  0.00     0.345 HD
ATOM     35  H   UNL     1       8.990  -0.503   1.124  1.00  0.00     0.345 HD
ENDBRANCH  23  32
ENDBRANCH   2  23
TORSDOF 7
