REMARK SMILES O=C(CC[C@@H]1CNC(=O)[C@@H]2C[C@H]([NH2+]Cc3ccc(OC(F)(F)F)cc3)CN12)NCc1ccccc1
REMARK SMILES IDX 5 1 6 2 7 3 8 4 9 5 10 6 26 7 12 8 11 9 27 10 4 12 3 13 2 14
REMARK SMILES IDX 28 15 1 17 29 18 30 19 33 20 34 21 32 22 35 23 31 24 13 25
REMARK SMILES IDX 14 28 15 29 25 30 16 31 24 32 17 33 18 34 19 35 20 36 21 37
REMARK SMILES IDX 22 38 23 39
REMARK H PARENT 7 11 28 16 13 26 13 27
REMARK Flexibility Score: inf
ROOT
ATOM      1  C   UNL     1      -3.141   2.013  -1.666  1.00  0.00     0.077 C 
ATOM      2  C   UNL     1      -3.124   1.240  -2.993  1.00  0.00     0.135 C 
ATOM      3  N   UNL     1      -1.783   0.796  -3.351  1.00  0.00    -0.353 N 
ATOM      4  C   UNL     1      -0.714   0.851  -2.535  1.00  0.00     0.237 C 
ATOM      5  O   UNL     1       0.342   0.359  -2.873  1.00  0.00    -0.273 OA
ATOM      6  C   UNL     1      -0.842   1.524  -1.206  1.00  0.00     0.153 C 
ATOM      7  C   UNL     1      -2.249   1.693   0.660  1.00  0.00     0.150 C 
ATOM      8  C   UNL     1      -0.833   1.342   1.187  1.00  0.00     0.199 C 
ATOM      9  C   UNL     1      -0.045   0.869  -0.068  1.00  0.00     0.095 C 
ATOM     10  N   UNL     1      -2.187   1.280  -0.758  1.00  0.00    -0.281 NA
ATOM     11  H   UNL     1      -1.643   0.414  -4.297  1.00  0.00     0.163 HD
ENDROOT
BRANCH   1  12
ATOM     12  C   UNL     1      -4.559   2.027  -1.091  1.00  0.00     0.031 C 
BRANCH  12  13
ATOM     13  C   UNL     1      -5.466   2.865  -1.993  1.00  0.00     0.101 C 
BRANCH  13  14
ATOM     14  C   UNL     1      -6.831   2.981  -1.364  1.00  0.00     0.220 C 
ATOM     15  N   UNL     1      -7.803   3.679  -1.985  1.00  0.00    -0.352 N 
ATOM     16  H   UNL     1      -7.612   4.134  -2.889  1.00  0.00     0.163 HD
ATOM     17  O   UNL     1      -7.056   2.445  -0.299  1.00  0.00    -0.275 OA
BRANCH  15  18
ATOM     18  C   UNL     1      -9.129   3.791  -1.374  1.00  0.00     0.151 C 
BRANCH  18  19
ATOM     19  C   UNL     1     -10.023   4.617  -2.262  1.00  0.00    -0.029 A 
ATOM     20  C   UNL     1     -11.664   6.132  -3.892  1.00  0.00     0.000 A 
ATOM     21  C   UNL     1     -10.908   6.745  -2.911  1.00  0.00     0.000 A 
ATOM     22  C   UNL     1     -11.601   4.761  -4.058  1.00  0.00     0.000 A 
ATOM     23  C   UNL     1     -10.090   5.987  -2.093  1.00  0.00     0.005 A 
ATOM     24  C   UNL     1     -10.781   4.003  -3.243  1.00  0.00     0.005 A 
ENDBRANCH  18  19
ENDBRANCH  15  18
ENDBRANCH  13  14
ENDBRANCH  12  13
ENDBRANCH   1  12
BRANCH   8  25
ATOM     25  N   UNL     1      -0.909   0.250   2.176  1.00  0.00    -0.339 N 
ATOM     26  H   UNL     1      -1.705  -0.363   1.948  1.00  0.00     0.346 HD
ATOM     27  H   UNL     1      -0.039  -0.301   2.146  1.00  0.00     0.346 HD
BRANCH  25  28
ATOM     28  C   UNL     1      -1.091   0.799   3.533  1.00  0.00     0.297 C 
BRANCH  28  29
ATOM     29  C   UNL     1      -1.165  -0.337   4.520  1.00  0.00     0.006 A 
ATOM     30  C   UNL     1      -0.010  -0.812   5.113  1.00  0.00     0.013 A 
ATOM     31  C   UNL     1      -2.389  -0.898   4.835  1.00  0.00     0.013 A 
ATOM     32  C   UNL     1      -0.076  -1.854   6.019  1.00  0.00     0.047 A 
ATOM     33  C   UNL     1      -2.459  -1.943   5.736  1.00  0.00     0.047 A 
ATOM     34  C   UNL     1      -1.302  -2.422   6.332  1.00  0.00     0.129 A 
BRANCH  34  35
ATOM     35  O   UNL     1      -1.369  -3.447   7.223  1.00  0.00    -0.406 OA
BRANCH  35  36
ATOM     36  C   UNL     1      -2.665  -3.984   7.498  1.00  0.00     0.573 C 
ATOM     37  F   UNL     1      -3.226  -4.476   6.315  1.00  0.00    -0.132 F 
ATOM     38  F   UNL     1      -2.551  -5.023   8.427  1.00  0.00    -0.132 F 
ATOM     39  F   UNL     1      -3.485  -2.978   8.020  1.00  0.00    -0.132 F 
ENDBRANCH  35  36
ENDBRANCH  34  35
ENDBRANCH  28  29
ENDBRANCH  25  28
ENDBRANCH   8  25
TORSDOF 10
