REMARK SMILES COc1ccc(CCC(=O)Nc2sc3c(c2-c2nc4ccccc4[nH]2)CCCC3)cc1OC
REMARK SMILES IDX 8 1 7 2 6 3 3 4 31 5 4 6 30 7 5 8 2 9 1 10 32 11 33 12 9 13
REMARK SMILES IDX 10 14 11 15 12 17 13 18 16 19 14 20 15 21 29 22 26 23 28 24
REMARK SMILES IDX 27 25 17 26 18 27 25 28 19 29 24 30 20 32 23 33 21 34 22 35
REMARK H PARENT 11 16 25 31
REMARK Flexibility Score: inf
ROOT
ATOM      1  C   UNL     1      -7.918   1.175   3.493  1.00  0.00     0.105 C 
ENDROOT
BRANCH   1   2
ATOM      2  C   UNL     1      -9.227   0.843   2.774  1.00  0.00     0.045 C 
BRANCH   2   3
ATOM      3  C   UNL     1     -10.382   1.027   3.724  1.00  0.00    -0.044 A 
ATOM      4  C   UNL     1     -12.505   1.359   5.471  1.00  0.00     0.160 A 
ATOM      5  C   UNL     1     -12.075   2.425   4.687  1.00  0.00     0.160 A 
ATOM      6  C   UNL     1     -11.870   0.132   5.376  1.00  0.00     0.051 A 
ATOM      7  C   UNL     1     -11.012   2.254   3.814  1.00  0.00     0.054 A 
ATOM      8  C   UNL     1     -10.814  -0.034   4.499  1.00  0.00     0.008 A 
BRANCH   4   9
ATOM      9  O   UNL     1     -13.547   1.522   6.330  1.00  0.00    -0.493 OA
ATOM     10  C   UNL     1     -13.935   0.385   7.104  1.00  0.00     0.278 C 
ENDBRANCH   4   9
BRANCH   5  11
ATOM     11  O   UNL     1     -12.695   3.631   4.777  1.00  0.00    -0.493 OA
ATOM     12  C   UNL     1     -12.200   4.680   3.942  1.00  0.00     0.278 C 
ENDBRANCH   5  11
ENDBRANCH   2   3
ENDBRANCH   1   2
BRANCH   1  13
ATOM     13  C   UNL     1      -6.763   0.991   2.543  1.00  0.00     0.225 C 
ATOM     14  O   UNL     1      -6.966   0.629   1.403  1.00  0.00    -0.275 OA
ATOM     15  N   UNL     1      -5.503   1.228   2.960  1.00  0.00    -0.317 N 
ATOM     16  H   UNL     1      -5.330   1.535   3.928  1.00  0.00     0.170 HD
BRANCH  15  17
ATOM     17  C   UNL     1      -4.437   1.058   2.084  1.00  0.00     0.107 A 
ATOM     18  S   UNL     1      -4.471   0.670   0.343  1.00  0.00    -0.122 S 
ATOM     19  C   UNL     1      -3.079   1.148   2.340  1.00  0.00     0.055 A 
ATOM     20  C   UNL     1      -2.725   0.644   0.040  1.00  0.00     0.011 A 
ATOM     21  C   UNL     1      -2.162   0.924   1.238  1.00  0.00    -0.021 A 
ATOM     22  C   UNL     1      -2.019   0.374  -1.253  1.00  0.00     0.047 C 
ATOM     23  C   UNL     1      -0.647   0.993   1.386  1.00  0.00     0.037 C 
ATOM     24  C   UNL     1      -0.558   0.825  -1.111  1.00  0.00     0.006 C 
ATOM     25  C   UNL     1       0.001   0.272   0.203  1.00  0.00     0.005 C 
BRANCH  19  26
ATOM     26  C   UNL     1      -2.580   1.460   3.691  1.00  0.00     0.141 A 
ATOM     27  N   UNL     1      -3.322   1.533   4.772  1.00  0.00    -0.228 NA
ATOM     28  N   UNL     1      -1.272   1.712   4.010  1.00  0.00    -0.338 N 
ATOM     29  C   UNL     1      -2.542   1.839   5.839  1.00  0.00     0.089 A 
ATOM     30  C   UNL     1      -1.223   1.962   5.370  1.00  0.00     0.066 A 
ATOM     31  H   UNL     1      -0.473   1.715   3.359  1.00  0.00     0.168 HD
ATOM     32  C   UNL     1      -2.810   2.034   7.198  1.00  0.00     0.030 A 
ATOM     33  C   UNL     1      -0.201   2.275   6.253  1.00  0.00     0.028 A 
ATOM     34  C   UNL     1      -1.782   2.343   8.060  1.00  0.00     0.002 A 
ATOM     35  C   UNL     1      -0.482   2.464   7.590  1.00  0.00     0.002 A 
ENDBRANCH  19  26
ENDBRANCH  15  17
ENDBRANCH   1  13
TORSDOF 7
