REMARK SMILES CCc1cccc2c(C3=CCN(C(=O)C[NH+]4CCC(C(=O)NCc5ccccc5)CC4)CC3)c[nH]c12
REMARK SMILES IDX 15 1 13 2 14 3 12 4 9 5 33 6 10 7 32 8 11 9 8 10 3 11 36 12
REMARK SMILES IDX 4 13 7 14 35 15 5 16 6 17 34 18 2 20 1 21 16 22 31 23 17 24
REMARK SMILES IDX 30 26 18 27 19 28 20 29 21 30 22 31 23 33 24 34 29 35 25 36
REMARK SMILES IDX 28 37 26 38 27 39
REMARK H PARENT 35 19 16 25 22 32
REMARK Flexibility Score: inf
ROOT
ATOM      1  C   UNL     1       0.002  -0.004   0.002  1.00  0.00     0.363 C 
ENDROOT
BRANCH   1   2
ATOM      2  C   UNL     1      -0.000   1.475   0.290  1.00  0.00     0.278 C 
ATOM      3  O   UNL     1       1.046   2.057   0.485  1.00  0.00    -0.268 OA
BRANCH   2   4
ATOM      4  N   UNL     1      -1.165   2.153   0.326  1.00  0.00    -0.334 N 
ATOM      5  C   UNL     1      -3.001   3.579  -1.114  1.00  0.00    -0.039 C 
ATOM      6  C   UNL     1      -1.782   4.302  -0.625  1.00  0.00     0.057 C 
ATOM      7  C   UNL     1      -3.297   2.336  -0.811  1.00  0.00    -0.001 C 
ATOM      8  C   UNL     1      -1.201   3.599   0.604  1.00  0.00     0.125 C 
ATOM      9  C   UNL     1      -2.449   1.480   0.082  1.00  0.00     0.147 C 
BRANCH   5  10
ATOM     10  C   UNL     1      -3.931   4.312  -1.995  1.00  0.00     0.003 A 
ATOM     11  C   UNL     1      -5.448   5.123  -5.184  1.00  0.00    -0.024 A 
ATOM     12  C   UNL     1      -5.080   5.052  -3.844  1.00  0.00     0.049 A 
ATOM     13  C   UNL     1      -4.836   4.306  -6.109  1.00  0.00     0.006 A 
ATOM     14  C   UNL     1      -4.080   4.146  -3.450  1.00  0.00     0.007 A 
ATOM     15  N   UNL     1      -5.498   5.721  -2.713  1.00  0.00    -0.360 N 
ATOM     16  C   UNL     1      -3.852   3.408  -5.718  1.00  0.00     0.001 A 
ATOM     17  C   UNL     1      -3.474   3.322  -4.397  1.00  0.00     0.011 A 
ATOM     18  C   UNL     1      -4.811   5.277  -1.621  1.00  0.00     0.091 A 
ATOM     19  H   UNL     1      -6.224   6.452  -2.696  1.00  0.00     0.166 HD
BRANCH  11  20
ATOM     20  C   UNL     1      -6.514   6.093  -5.622  1.00  0.00     0.034 C 
ATOM     21  C   UNL     1      -5.883   7.464  -5.875  1.00  0.00     0.009 C 
ENDBRANCH  11  20
ENDBRANCH   5  10
ENDBRANCH   2   4
ENDBRANCH   1   2
BRANCH   1  22
ATOM     22  N   UNL     1       1.387  -0.474  -0.134  1.00  0.00    -0.327 N 
ATOM     23  C   UNL     1       2.026   0.107  -1.322  1.00  0.00     0.263 C 
ATOM     24  C   UNL     1       1.444  -1.941  -0.165  1.00  0.00     0.263 C 
ATOM     25  H   UNL     1       1.913  -0.157   0.692  1.00  0.00     0.348 HD
ATOM     26  C   UNL     1       3.504  -0.287  -1.353  1.00  0.00     0.075 C 
ATOM     27  C   UNL     1       2.905  -2.396  -0.161  1.00  0.00     0.075 C 
ATOM     28  C   UNL     1       3.620  -1.813  -1.383  1.00  0.00     0.089 C 
BRANCH  28  29
ATOM     29  C   UNL     1       5.074  -2.209  -1.353  1.00  0.00     0.223 C 
ATOM     30  O   UNL     1       5.934  -1.355  -1.311  1.00  0.00    -0.275 OA
ATOM     31  N   UNL     1       5.418  -3.512  -1.373  1.00  0.00    -0.352 N 
ATOM     32  H   UNL     1       4.688  -4.237  -1.408  1.00  0.00     0.163 HD
BRANCH  31  33
ATOM     33  C   UNL     1       6.832  -3.896  -1.343  1.00  0.00     0.151 C 
BRANCH  33  34
ATOM     34  C   UNL     1       6.944  -5.399  -1.373  1.00  0.00    -0.029 A 
ATOM     35  C   UNL     1       7.028  -6.061  -2.583  1.00  0.00     0.005 A 
ATOM     36  C   UNL     1       6.969  -6.114  -0.190  1.00  0.00     0.005 A 
ATOM     37  C   UNL     1       7.132  -7.439  -2.611  1.00  0.00     0.000 A 
ATOM     38  C   UNL     1       7.067  -7.492  -0.218  1.00  0.00     0.000 A 
ATOM     39  C   UNL     1       7.151  -8.155  -1.429  1.00  0.00     0.000 A 
ENDBRANCH  33  34
ENDBRANCH  31  33
ENDBRANCH  28  29
ENDBRANCH   1  22
TORSDOF 8
