REMARK SMILES CC1(C)OC[C@@H]([C@@H]2CC[C@@]3(C)C4=CC[C@@H]5C(C)(C)[C@@H](O)CC[C@@]5(C)[C@@H]4CC[C@@]23C)C[C@@H](O)[C@@H]1O
REMARK SMILES IDX 5 1 6 2 7 3 17 4 16 5 15 6 19 7 18 8 23 9 14 10 21 11 22 12
REMARK SMILES IDX 25 13 24 14 13 15 12 16 26 17 10 18 27 19 28 20 9 21 11 22
REMARK SMILES IDX 29 23 8 24 20 25 30 27 31 28 32 30 4 32 2 33 1 34 3 35 33 36
REMARK SMILES IDX 34 38
REMARK H PARENT 20 26 32 31 34 39
REMARK Flexibility Score: 80.00
ROOT
ATOM      1  C   UNL     1      -1.133  -4.219  -1.769  1.00  0.00     0.165 C 
ENDROOT
BRANCH   1   2
ATOM      2  C   UNL     1       0.061  -4.401  -2.595  1.00  0.00     0.021 C 
BRANCH   2   3
ATOM      3  C   UNL     1       1.231  -3.671  -1.930  1.00  0.00     0.001 C 
ATOM      4  C   UNL     1       1.934   2.849   3.711  1.00  0.00     0.014 C 
ATOM      5  C   UNL     1       2.154   3.048   2.192  1.00  0.00    -0.006 C 
ATOM      6  C   UNL     1       1.811   1.751   1.493  1.00  0.00     0.007 C 
ATOM      7  C   UNL     1       3.622   3.435   2.011  1.00  0.00     0.120 C 
ATOM      8  C   UNL     1       1.259   4.209   1.758  1.00  0.00     0.014 C 
ATOM      9  C   UNL     1       2.323   1.607   0.067  1.00  0.00    -0.022 C 
ATOM     10  C   UNL     1       0.308   1.470   1.496  1.00  0.00     0.032 C 
ATOM     11  C   UNL     1       4.048   3.361   0.550  1.00  0.00     0.033 C 
ATOM     12  C   UNL     1       3.815   1.954   0.009  1.00  0.00     0.010 C 
ATOM     13  C   UNL     1       2.148   0.160  -0.377  1.00  0.00     0.021 C 
ATOM     14  C   UNL     1       1.565   2.514  -0.901  1.00  0.00     0.012 C 
ATOM     15  C   UNL     1       0.094   0.068   0.975  1.00  0.00    -0.027 C 
ATOM     16  C   UNL     1       0.899  -0.512   0.128  1.00  0.00    -0.064 C 
ATOM     17  C   UNL     1       2.196   0.034  -1.899  1.00  0.00     0.009 C 
ATOM     18  C   UNL     1       0.620  -1.919  -0.337  1.00  0.00    -0.006 C 
ATOM     19  C   UNL     1       2.248  -1.458  -2.234  1.00  0.00     0.008 C 
ATOM     20  C   UNL     1       0.946  -2.148  -1.825  1.00  0.00    -0.020 C 
ATOM     21  C   UNL     1       1.532  -2.925   0.396  1.00  0.00     0.012 C 
ATOM     22  C   UNL     1      -0.847  -2.297  -0.096  1.00  0.00     0.017 C 
ATOM     23  C   UNL     1      -0.222  -1.742  -2.727  1.00  0.00     0.012 C 
ATOM     24  C   UNL     1       1.455  -4.184  -0.498  1.00  0.00     0.005 C 
BRANCH   7  25
ATOM     25  O   UNL     1       4.441   2.564   2.798  1.00  0.00    -0.393 OA
ATOM     26  H   UNL     1       4.308   1.628   2.504  1.00  0.00     0.210 HD
ENDBRANCH   7  25
ENDBRANCH   2   3
BRANCH   2  27
ATOM     27  C   UNL     1       0.415  -5.892  -2.751  1.00  0.00     0.041 C 
BRANCH  27  28
ATOM     28  C   UNL     1      -0.678  -6.551  -3.539  1.00  0.00     0.146 CG0
ATOM     29  G   UNL     1      -1.802  -7.121  -2.650  1.00  0.00     0.000 G0
BRANCH  28  30
ATOM     30  O   UNL     1      -0.110  -7.615  -4.310  1.00  0.00    -0.390 OA
ATOM     31  H   UNL     1       0.308  -8.281  -3.708  1.00  0.00     0.211 HD
ENDBRANCH  28  30
ENDBRANCH  27  28
ENDBRANCH   2  27
ENDBRANCH   1   2
BRANCH   1  32
ATOM     32  O   UNL     1      -2.316  -4.729  -2.385  1.00  0.00    -0.372 OA
BRANCH  32  33
ATOM     33  C   UNL     1      -2.729  -6.018  -2.094  1.00  0.00     0.091 C 
ATOM     34  C   UNL     1      -4.120  -6.224  -2.723  1.00  0.00     0.045 C 
ATOM     35  C   UNL     1      -2.884  -6.218  -0.585  1.00  0.00     0.045 C 
BRANCH  33  36
ATOM     36  C   UNL     1      -1.802  -7.121  -2.650  1.00  0.00     0.174 CG0
ATOM     37  G   UNL     1      -0.678  -6.551  -3.539  1.00  0.00     0.000 G0
BRANCH  36  38
ATOM     38  O   UNL     1      -2.589  -8.029  -3.430  1.00  0.00    -0.387 OA
ATOM     39  H   UNL     1      -2.022  -8.771  -3.758  1.00  0.00     0.211 HD
ENDBRANCH  36  38
ENDBRANCH  33  36
ENDBRANCH  32  33
ENDBRANCH   1  32
TORSDOF 4
