REMARK SMILES CC(=O)NCc1ccc(-c2nc(NC(=O)c3ccc(NC(=O)C4CC4)s3)sc2C)s1
REMARK SMILES IDX 29 1 28 2 10 3 11 4 12 5 27 6 9 7 30 8 8 9 6 10 7 11 5 12
REMARK SMILES IDX 4 13 2 14 3 16 1 17 13 18 14 19 15 21 16 22 26 23 17 24
REMARK SMILES IDX 19 25 18 26 20 27 21 28 22 30 23 31 25 32 24 33
REMARK H PARENT 4 15 13 20 20 29
REMARK Flexibility Score: inf
ROOT
ATOM      1  C   UNL     1       4.172   4.568   3.028  1.00  0.00     0.059 C 
ATOM      2  C   UNL     1       5.273   4.116   2.103  1.00  0.00     0.032 A 
ATOM      3  C   UNL     1       5.199   3.377   0.954  1.00  0.00     0.096 A 
ATOM      4  N   UNL     1       6.318   3.089   0.293  1.00  0.00    -0.219 NA
ATOM      5  C   UNL     1       7.493   3.511   0.723  1.00  0.00     0.190 A 
ATOM      6  S   UNL     1       7.036   4.397   2.206  1.00  0.00    -0.101 S 
ENDROOT
BRANCH   3   7
ATOM      7  C   UNL     1       3.892   2.899   0.455  1.00  0.00     0.054 A 
ATOM      8  S   UNL     1       2.459   2.371   1.380  1.00  0.00    -0.137 S 
ATOM      9  C   UNL     1       3.463   2.752  -0.837  1.00  0.00     0.022 A 
ATOM     10  C   UNL     1       1.396   1.982  -0.001  1.00  0.00     0.024 A 
ATOM     11  C   UNL     1       2.186   2.283  -1.062  1.00  0.00     0.018 A 
BRANCH  10  12
ATOM     12  C   UNL     1      -0.018   1.461   0.010  1.00  0.00     0.162 C 
BRANCH  12  13
ATOM     13  N   UNL     1       0.002  -0.004   0.002  1.00  0.00    -0.351 N 
ATOM     14  C   UNL     1      -1.156  -0.694   0.009  1.00  0.00     0.217 C 
ATOM     15  H   UNL     1       0.901  -0.507  -0.009  1.00  0.00     0.163 HD
ATOM     16  O   UNL     1      -2.214  -0.102   0.023  1.00  0.00    -0.275 OA
ATOM     17  C   UNL     1      -1.135  -2.201   0.001  1.00  0.00     0.114 C 
ENDBRANCH  12  13
ENDBRANCH  10  12
ENDBRANCH   3   7
BRANCH   5  18
ATOM     18  N   UNL     1       8.751   3.315   0.171  1.00  0.00    -0.297 N 
ATOM     19  C   UNL     1       9.840   3.831   0.774  1.00  0.00     0.267 C 
ATOM     20  H   UNL     1       8.853   2.775  -0.701  1.00  0.00     0.172 HD
ATOM     21  O   UNL     1       9.720   4.470   1.804  1.00  0.00    -0.268 OA
BRANCH  19  22
ATOM     22  C   UNL     1      11.126   3.631   0.210  1.00  0.00     0.094 A 
ATOM     23  S   UNL     1      11.575   2.739  -1.268  1.00  0.00    -0.113 S 
ATOM     24  C   UNL     1      12.359   4.073   0.670  1.00  0.00     0.028 A 
ATOM     25  C   UNL     1      13.289   2.990  -1.215  1.00  0.00     0.096 A 
ATOM     26  C   UNL     1      13.461   3.738  -0.070  1.00  0.00     0.039 A 
BRANCH  25  27
ATOM     27  N   UNL     1      14.256   2.542  -2.107  1.00  0.00    -0.317 N 
ATOM     28  C   UNL     1      13.895   1.815  -3.183  1.00  0.00     0.228 C 
ATOM     29  H   UNL     1      15.248   2.766  -1.947  1.00  0.00     0.170 HD
ATOM     30  O   UNL     1      12.726   1.552  -3.373  1.00  0.00    -0.274 OA
BRANCH  28  31
ATOM     31  C   UNL     1      14.943   1.329  -4.151  1.00  0.00     0.079 C 
ATOM     32  C   UNL     1      14.469   0.509  -5.352  1.00  0.00     0.014 C 
ATOM     33  C   UNL     1      14.953   1.947  -5.551  1.00  0.00     0.014 C 
ENDBRANCH  28  31
ENDBRANCH  25  27
ENDBRANCH  19  22
ENDBRANCH   5  18
TORSDOF 7
