REMARK SMILES Cc1nn(-c2ccc3onc(N)c3c2)c2c(=O)n(-c3ccc(-c4ccccc4C[NH+](C)C)cc3)cnc12
REMARK SMILES IDX 19 1 20 2 21 3 22 4 33 5 34 6 18 7 1 8 2 9 3 10 37 11 4 12
REMARK SMILES IDX 36 13 15 14 35 15 16 16 17 17 5 18 14 19 6 20 13 21 7 22
REMARK SMILES IDX 8 23 11 24 9 25 10 26 12 27 23 30 28 31 24 32 27 33 25 34
REMARK SMILES IDX 26 35 29 36 30 37 31 38 32 39
REMARK H PARENT 12 28 12 29 30 40
REMARK Flexibility Score: inf
ROOT
ATOM      1  C   UNL     1      -0.956   1.591   1.257  1.00  0.00     0.050 A 
ATOM      2  C   UNL     1       0.230   1.381   1.950  1.00  0.00     0.027 A 
ATOM      3  C   UNL     1       1.350   2.124   1.643  1.00  0.00     0.011 A 
ATOM      4  C   UNL     1       1.291   3.090   0.639  1.00  0.00    -0.018 A 
ATOM      5  C   UNL     1       0.099   3.302  -0.051  1.00  0.00     0.011 A 
ATOM      6  C   UNL     1      -1.018   2.557   0.259  1.00  0.00     0.027 A 
ENDROOT
BRANCH   1   7
ATOM      7  N   UNL     1      -2.090   0.833   1.566  1.00  0.00    -0.266 N 
ATOM      8  C   UNL     1      -6.550  -1.357   3.321  1.00  0.00     0.071 C 
ATOM      9  C   UNL     1      -5.381  -1.494   2.379  1.00  0.00     0.086 A 
ATOM     10  N   UNL     1      -5.179  -2.489   1.556  1.00  0.00    -0.170 NA
ATOM     11  C   UNL     1      -4.328  -0.571   2.241  1.00  0.00     0.119 A 
ATOM     12  N   UNL     1      -3.994  -2.270   0.843  1.00  0.00    -0.225 N 
ATOM     13  N   UNL     1      -4.035   0.614   2.833  1.00  0.00    -0.234 NA
ATOM     14  C   UNL     1      -3.463  -1.081   1.265  1.00  0.00     0.158 A 
ATOM     15  C   UNL     1      -2.963   1.277   2.511  1.00  0.00     0.208 A 
ATOM     16  C   UNL     1      -2.308  -0.339   0.929  1.00  0.00     0.284 A 
ATOM     17  O   UNL     1      -1.528  -0.745   0.085  1.00  0.00    -0.266 OA
BRANCH  12  18
ATOM     18  C   UNL     1      -3.448  -3.118  -0.131  1.00  0.00     0.067 A 
ATOM     19  C   UNL     1      -3.575  -4.489  -0.000  1.00  0.00     0.044 A 
ATOM     20  C   UNL     1      -2.785  -2.577  -1.230  1.00  0.00     0.032 A 
ATOM     21  C   UNL     1      -3.030  -5.327  -0.973  1.00  0.00     0.068 A 
ATOM     22  C   UNL     1      -2.239  -3.398  -2.191  1.00  0.00     0.053 A 
ATOM     23  C   UNL     1      -2.358  -4.778  -2.075  1.00  0.00     0.169 A 
ATOM     24  C   UNL     1      -2.982  -6.788  -1.141  1.00  0.00     0.174 A 
ATOM     25  O   UNL     1      -1.941  -5.808  -2.842  1.00  0.00    -0.354 OA
ATOM     26  N   UNL     1      -2.336  -7.028  -2.248  1.00  0.00    -0.061 NA
BRANCH  24  27
ATOM     27  N   UNL     1      -3.524  -7.734  -0.282  1.00  0.00    -0.380 N 
ATOM     28  H   UNL     1      -4.001  -7.352   0.547  1.00  0.00     0.158 HD
ATOM     29  H   UNL     1      -3.464  -8.749  -0.446  1.00  0.00     0.158 HD
ENDBRANCH  24  27
ENDBRANCH  12  18
ENDBRANCH   1   7
BRANCH   4  30
ATOM     30  C   UNL     1       2.495   3.890   0.307  1.00  0.00    -0.010 A 
ATOM     31  C   UNL     1       2.446   5.282   0.359  1.00  0.00     0.014 A 
ATOM     32  C   UNL     1       3.678   3.253  -0.064  1.00  0.00     0.009 A 
ATOM     33  C   UNL     1       3.571   6.021   0.054  1.00  0.00     0.010 A 
ATOM     34  C   UNL     1       4.795   4.003  -0.371  1.00  0.00     0.001 A 
ATOM     35  C   UNL     1       4.742   5.384  -0.313  1.00  0.00     0.001 A 
BRANCH  31  36
ATOM     36  C   UNL     1       1.169   5.978   0.753  1.00  0.00     0.299 C 
BRANCH  36  37
ATOM     37  N   UNL     1       0.952   5.791   2.204  1.00  0.00    -0.336 N 
ATOM     38  C   UNL     1       1.984   6.524   2.967  1.00  0.00     0.332 C 
ATOM     39  C   UNL     1      -0.393   6.275   2.580  1.00  0.00     0.332 C 
ATOM     40  H   UNL     1       1.021   4.788   2.426  1.00  0.00     0.347 HD
ENDBRANCH  36  37
ENDBRANCH  31  36
ENDBRANCH   4  30
TORSDOF 6
