REMARK SMILES O=C(Cc1ccc(NC(=O)N2CCCCc3ccccc32)cc1)NCCC[N@@H+]1CCc2ccccc2C1
REMARK SMILES IDX 4 1 5 2 6 3 7 4 22 5 23 6 3 7 2 8 24 9 1 11 25 12 26 13
REMARK SMILES IDX 27 14 28 15 33 16 32 17 34 18 31 19 35 20 36 21 30 22 37 23
REMARK SMILES IDX 29 24 8 26 9 27 10 29 11 30 21 31 16 32 20 33 17 34 19 35
REMARK SMILES IDX 18 36 15 37 12 39 13 40 14 41
REMARK H PARENT 24 10 28 25 8 28
REMARK Flexibility Score: 80.00
ROOT
ATOM      1  C   UNL     1      -2.308   8.147   4.897  1.00  0.00    -0.039 A 
ATOM      2  C   UNL     1      -3.542   8.740   4.706  1.00  0.00     0.006 A 
ATOM      3  C   UNL     1      -4.254   9.222   5.787  1.00  0.00     0.026 A 
ATOM      4  C   UNL     1      -3.724   9.120   7.066  1.00  0.00     0.042 A 
ATOM      5  C   UNL     1      -2.481   8.530   7.255  1.00  0.00     0.026 A 
ATOM      6  C   UNL     1      -1.777   8.045   6.170  1.00  0.00     0.006 A 
ENDROOT
BRANCH   1   7
ATOM      7  C   UNL     1      -1.537   7.617   3.716  1.00  0.00     0.135 C 
BRANCH   7   8
ATOM      8  C   UNL     1      -1.906   6.175   3.482  1.00  0.00     0.224 C 
ATOM      9  N   UNL     1      -1.336   5.489   2.471  1.00  0.00    -0.356 N 
ATOM     10  H   UNL     1      -0.649   5.951   1.858  1.00  0.00     0.163 HD
ATOM     11  O   UNL     1      -2.715   5.631   4.203  1.00  0.00    -0.275 OA
BRANCH   9  12
ATOM     12  C   UNL     1      -1.695   4.087   2.243  1.00  0.00     0.121 C 
BRANCH  12  13
ATOM     13  C   UNL     1      -0.912   3.549   1.044  1.00  0.00     0.083 C 
BRANCH  13  14
ATOM     14  C   UNL     1      -1.286   2.085   0.806  1.00  0.00     0.264 C 
BRANCH  14  15
ATOM     15  N   UNL     1      -0.542   1.576  -0.367  1.00  0.00    -0.331 N 
ATOM     16  C   UNL     1       3.160   0.226  -3.446  1.00  0.00     0.000 A 
ATOM     17  C   UNL     1       1.909  -0.280  -3.157  1.00  0.00     0.004 A 
ATOM     18  C   UNL     1       3.666   1.278  -2.705  1.00  0.00     0.001 A 
ATOM     19  C   UNL     1       1.156   0.262  -2.126  1.00  0.00    -0.034 A 
ATOM     20  C   UNL     1       2.917   1.816  -1.678  1.00  0.00     0.010 A 
ATOM     21  C   UNL     1       1.660   1.308  -1.385  1.00  0.00     0.010 A 
ATOM     22  C   UNL     1      -0.207  -0.320  -1.849  1.00  0.00     0.097 C 
ATOM     23  C   UNL     1       0.884   1.926  -0.251  1.00  0.00     0.299 C 
ATOM     24  C   UNL     1      -0.685   0.108  -0.462  1.00  0.00     0.267 C 
ATOM     25  H   UNL     1      -0.929   2.010  -1.218  1.00  0.00     0.348 HD
ENDBRANCH  14  15
ENDBRANCH  13  14
ENDBRANCH  12  13
ENDBRANCH   9  12
ENDBRANCH   7   8
ENDBRANCH   1   7
BRANCH   4  26
ATOM     26  N   UNL     1      -4.440   9.612   8.164  1.00  0.00    -0.308 N 
ATOM     27  C   UNL     1      -3.783  10.138   9.216  1.00  0.00     0.326 C 
ATOM     28  H   UNL     1      -5.469   9.571   8.166  1.00  0.00     0.171 HD
ATOM     29  O   UNL     1      -2.575  10.274   9.173  1.00  0.00    -0.248 OA
BRANCH  27  30
ATOM     30  N   UNL     1      -4.464  10.512  10.317  1.00  0.00    -0.294 N 
BRANCH  30  31
ATOM     31  C   UNL     1      -5.854  10.370  10.388  1.00  0.00     0.049 A 
ATOM     32  C   UNL     1      -6.673  11.479  10.407  1.00  0.00    -0.024 A 
ATOM     33  C   UNL     1      -6.417   9.096  10.456  1.00  0.00     0.027 A 
ATOM     34  C   UNL     1      -8.039  11.344  10.528  1.00  0.00     0.006 A 
ATOM     35  C   UNL     1      -7.788   8.960  10.565  1.00  0.00     0.002 A 
ATOM     36  C   UNL     1      -8.598  10.080  10.608  1.00  0.00     0.000 A 
BRANCH  32  37
ATOM     37  C   UNL     1      -6.050  12.859  10.282  1.00  0.00     0.038 CG0
ATOM     38  G   UNL     1      -5.239  13.158  11.539  1.00  0.00     0.000 G0
ENDBRANCH  32  37
ENDBRANCH  30  31
BRANCH  30  39
ATOM     39  C   UNL     1      -3.770  11.089  11.480  1.00  0.00     0.127 C 
BRANCH  39  40
ATOM     40  C   UNL     1      -3.828  12.598  11.430  1.00  0.00     0.022 C 
BRANCH  40  41
ATOM     41  C   UNL     1      -5.239  13.158  11.539  1.00  0.00     0.007 CG0
ATOM     42  G   UNL     1      -6.050  12.859  10.282  1.00  0.00     0.000 G0
ENDBRANCH  40  41
ENDBRANCH  39  40
ENDBRANCH  30  39
ENDBRANCH  27  30
ENDBRANCH   4  26
TORSDOF 8
