REMARK SMILES C=CCN1C(=O)/C(=C/c2c(NC3CC(C)(C)[NH2+]C(C)(C)C3)nc3ccc(C)cn3c2=O)SC1=S
REMARK SMILES IDX 27 1 26 2 25 3 24 4 23 5 22 6 10 7 9 8 30 9 31 10 29 11
REMARK SMILES IDX 28 12 8 13 7 14 32 15 5 16 33 17 6 18 4 19 34 20 3 21 2 22
REMARK SMILES IDX 1 23 11 24 12 26 13 27 21 28 14 29 18 30 15 31 16 32 17 33
REMARK SMILES IDX 19 34 20 35
REMARK H PARENT 11 25 17 36 17 37
REMARK Flexibility Score: inf
ROOT
ATOM      1  C   UNL     1       4.560   6.734  -0.190  1.00  0.00     0.046 C 
ATOM      2  C   UNL     1       4.311   5.258  -0.014  1.00  0.00    -0.034 A 
ATOM      3  C   UNL     1       5.383   4.395   0.249  1.00  0.00     0.009 A 
ATOM      4  C   UNL     1       5.149   3.061   0.407  1.00  0.00     0.048 A 
ATOM      5  C   UNL     1       3.835   2.570   0.303  1.00  0.00     0.142 A 
ATOM      6  N   UNL     1       3.616   1.264   0.459  1.00  0.00    -0.212 NA
ATOM      7  C   UNL     1       2.399   0.748   0.371  1.00  0.00     0.141 A 
ATOM      8  C   UNL     1       1.298   1.597   0.107  1.00  0.00     0.084 A 
ATOM      9  C   UNL     1       1.543   2.981  -0.061  1.00  0.00     0.267 A 
ATOM     10  O   UNL     1       0.626   3.749  -0.294  1.00  0.00    -0.268 OA
ATOM     11  N   UNL     1       2.810   3.437   0.046  1.00  0.00    -0.267 N 
ATOM     12  C   UNL     1       3.054   4.769  -0.110  1.00  0.00     0.100 A 
ENDROOT
BRANCH   8  13
ATOM     13  C   UNL     1      -0.013   1.076   0.008  1.00  0.00     0.039 C 
ATOM     14  C   UNL     1      -0.287   0.087  -0.892  1.00  0.00     0.081 C 
ATOM     15  S   UNL     1       0.755  -0.616  -2.162  1.00  0.00    -0.054 SA
ATOM     16  C   UNL     1      -1.484  -0.661  -1.078  1.00  0.00     0.266 C 
ATOM     17  C   UNL     1      -0.419  -1.800  -2.803  1.00  0.00     0.148 C 
ATOM     18  O   UNL     1      -2.463  -0.462  -0.379  1.00  0.00    -0.268 OA
ATOM     19  N   UNL     1      -1.504  -1.579  -2.029  1.00  0.00    -0.289 N 
ATOM     20  S   UNL     1      -0.221  -2.925  -4.079  1.00  0.00    -0.052 S 
BRANCH  19  21
ATOM     21  C   UNL     1      -2.720  -2.366  -2.248  1.00  0.00     0.154 C 
BRANCH  21  22
ATOM     22  C   UNL     1      -3.600  -1.665  -3.249  1.00  0.00    -0.013 C 
ATOM     23  C   UNL     1      -4.000  -2.296  -4.325  1.00  0.00     0.006 C 
ENDBRANCH  21  22
ENDBRANCH  19  21
ENDBRANCH   8  13
BRANCH   7  24
ATOM     24  N   UNL     1       2.206  -0.606   0.537  1.00  0.00    -0.366 N 
ATOM     25  H   UNL     1       1.258  -1.003   0.469  1.00  0.00     0.162 HD
BRANCH  24  26
ATOM     26  C   UNL     1       3.352  -1.483   0.811  1.00  0.00     0.093 C 
ATOM     27  C   UNL     1       2.862  -2.740   1.528  1.00  0.00     0.093 C 
ATOM     28  C   UNL     1       3.995  -1.897  -0.512  1.00  0.00     0.093 C 
ATOM     29  C   UNL     1       4.032  -3.681   1.808  1.00  0.00     0.093 C 
ATOM     30  C   UNL     1       5.177  -2.830  -0.259  1.00  0.00     0.093 C 
ATOM     31  C   UNL     1       4.864  -3.133   2.973  1.00  0.00     0.079 C 
ATOM     32  C   UNL     1       3.442  -5.034   2.264  1.00  0.00     0.079 C 
ATOM     33  N   UNL     1       4.884  -3.988   0.627  1.00  0.00    -0.337 N 
ATOM     34  C   UNL     1       6.370  -2.017   0.257  1.00  0.00     0.079 C 
ATOM     35  C   UNL     1       5.591  -3.436  -1.619  1.00  0.00     0.079 C 
ATOM     36  H   UNL     1       5.776  -4.382   0.960  1.00  0.00     0.347 HD
ATOM     37  H   UNL     1       4.421  -4.720   0.070  1.00  0.00     0.347 HD
ENDBRANCH  24  26
ENDBRANCH   7  24
TORSDOF 5
