REMARK SMILES O=C1Nc2ccccc2S/C1=C/c1ccc(C(=O)NCC[NH+]2CCC(Cc3ccccc3)CC2)cc1
REMARK SMILES IDX 21 1 22 2 25 3 33 4 24 5 34 6 23 7 26 9 27 10 30 11 31 12
REMARK SMILES IDX 29 13 32 14 28 15 20 16 19 17 17 18 18 20 16 21 35 22 15 23
REMARK SMILES IDX 36 24 14 25 13 26 12 27 11 28 10 29 2 30 9 31 1 32 3 33 4 34
REMARK SMILES IDX 8 35 5 37 7 38 6 39
REMARK H PARENT 22 8 19 19 3 36
REMARK Flexibility Score: inf
ROOT
ATOM      1  C   UNL     1      -8.567  -1.727   0.513  1.00  0.00     0.283 C 
ENDROOT
BRANCH   1   2
ATOM      2  N   UNL     1      -9.852  -2.431   0.619  1.00  0.00    -0.333 N 
ATOM      3  C   UNL     1     -12.552  -3.144  -0.118  1.00  0.00     0.004 C 
ATOM      4  C   UNL     1     -11.369  -4.085  -0.363  1.00  0.00     0.065 C 
ATOM      5  C   UNL     1     -12.248  -2.262   1.096  1.00  0.00     0.065 C 
ATOM      6  C   UNL     1     -10.099  -3.257  -0.570  1.00  0.00     0.262 C 
ATOM      7  C   UNL     1     -10.953  -1.487   0.847  1.00  0.00     0.262 C 
ATOM      8  H   UNL     1      -9.803  -3.060   1.433  1.00  0.00     0.348 HD
BRANCH   3   9
ATOM      9  C   UNL     1     -13.814  -3.966   0.150  1.00  0.00     0.039 C 
BRANCH   9  10
ATOM     10  C   UNL     1     -14.181  -4.741  -1.089  1.00  0.00    -0.048 A 
ATOM     11  C   UNL     1     -14.854  -6.163  -3.362  1.00  0.00     0.000 A 
ATOM     12  C   UNL     1     -15.362  -4.893  -3.167  1.00  0.00     0.000 A 
ATOM     13  C   UNL     1     -14.010  -6.723  -2.422  1.00  0.00     0.000 A 
ATOM     14  C   UNL     1     -15.029  -4.183  -2.028  1.00  0.00     0.004 A 
ATOM     15  C   UNL     1     -13.674  -6.012  -1.285  1.00  0.00     0.004 A 
ENDBRANCH   9  10
ENDBRANCH   3   9
ENDBRANCH   1   2
BRANCH   1  16
ATOM     16  C   UNL     1      -7.425  -2.745   0.527  1.00  0.00     0.177 C 
BRANCH  16  17
ATOM     17  N   UNL     1      -6.144  -2.043   0.421  1.00  0.00    -0.346 N 
ATOM     18  C   UNL     1      -4.991  -2.741   0.414  1.00  0.00     0.251 C 
ATOM     19  H   UNL     1      -6.124  -1.015   0.353  1.00  0.00     0.164 HD
ATOM     20  O   UNL     1      -5.014  -3.954   0.494  1.00  0.00    -0.269 OA
BRANCH  18  21
ATOM     21  C   UNL     1      -3.700  -2.033   0.308  1.00  0.00     0.039 A 
ATOM     22  C   UNL     1      -3.674  -0.638   0.214  1.00  0.00     0.014 A 
ATOM     23  C   UNL     1      -2.504  -2.759   0.300  1.00  0.00     0.014 A 
ATOM     24  C   UNL     1      -2.480   0.018   0.121  1.00  0.00     0.009 A 
ATOM     25  C   UNL     1      -1.310  -2.106   0.201  1.00  0.00     0.009 A 
ATOM     26  C   UNL     1      -1.282  -0.708   0.108  1.00  0.00    -0.024 A 
BRANCH  26  27
ATOM     27  C   UNL     1       0.002  -0.004   0.002  1.00  0.00     0.029 C 
ATOM     28  C   UNL     1       0.101   1.116  -0.757  1.00  0.00     0.078 C 
ATOM     29  S   UNL     1       1.554   2.134  -0.743  1.00  0.00    -0.082 SA
ATOM     30  C   UNL     1      -0.996   1.558  -1.651  1.00  0.00     0.262 C 
ATOM     31  C   UNL     1       0.848   3.751  -0.847  1.00  0.00     0.036 A 
ATOM     32  O   UNL     1      -1.766   0.737  -2.111  1.00  0.00    -0.268 OA
ATOM     33  N   UNL     1      -1.144   2.854  -1.948  1.00  0.00    -0.320 N 
ATOM     34  C   UNL     1      -0.408   3.913  -1.435  1.00  0.00     0.055 A 
ATOM     35  C   UNL     1       1.542   4.842  -0.348  1.00  0.00     0.017 A 
ATOM     36  H   UNL     1      -1.881   3.091  -2.627  1.00  0.00     0.170 HD
ATOM     37  C   UNL     1      -0.949   5.197  -1.510  1.00  0.00     0.027 A 
ATOM     38  C   UNL     1       0.990   6.107  -0.430  1.00  0.00     0.001 A 
ATOM     39  C   UNL     1      -0.253   6.279  -1.012  1.00  0.00     0.002 A 
ENDBRANCH  26  27
ENDBRANCH  18  21
ENDBRANCH  16  17
ENDBRANCH   1  16
TORSDOF 7
