REMARK SMILES Cc1cc(C(=O)COC(=O)C[C@H](NC(N)=O)c2ccc(Cl)cc2)c(C)n1CCc1cccs1
REMARK SMILES IDX 7 1 5 2 6 3 4 4 1 5 2 6 26 7 3 8 24 9 25 10 27 11 28 12
REMARK SMILES IDX 29 13 33 14 30 15 32 16 31 17 8 18 9 19 10 20 11 21 12 22
REMARK SMILES IDX 17 23 23 24 18 25 22 26 19 27 20 28 21 29 13 30 14 31 16 33
REMARK SMILES IDX 15 34
REMARK H PARENT 13 32 15 35 15 36
REMARK Flexibility Score: inf
ROOT
ATOM      1  C   UNL     1      -8.893  -1.542   1.019  1.00  0.00     0.313 C 
ENDROOT
BRANCH   1   2
ATOM      2  C   UNL     1      -7.407  -1.379   0.822  1.00  0.00     0.202 C 
ATOM      3  O   UNL     1      -6.698  -2.358   0.722  1.00  0.00    -0.290 OA
BRANCH   2   4
ATOM      4  C   UNL     1      -6.821  -0.039   0.752  1.00  0.00     0.042 A 
ATOM      5  C   UNL     1      -6.852   3.686   0.795  1.00  0.00     0.064 C 
ATOM      6  C   UNL     1      -6.593   2.202   0.743  1.00  0.00     0.015 A 
ATOM      7  N   UNL     1      -5.372   1.618   0.570  1.00  0.00    -0.348 N 
ATOM      8  C   UNL     1      -7.529   1.244   0.855  1.00  0.00     0.035 A 
ATOM      9  C   UNL     1      -5.487   0.278   0.577  1.00  0.00     0.026 A 
ATOM     10  C   UNL     1      -4.357  -0.707   0.420  1.00  0.00     0.065 C 
BRANCH   7  11
ATOM     11  C   UNL     1      -4.112   2.348   0.407  1.00  0.00     0.127 C 
BRANCH  11  12
ATOM     12  C   UNL     1      -3.864   2.611  -1.080  1.00  0.00     0.068 C 
BRANCH  12  13
ATOM     13  C   UNL     1      -2.568   3.362  -1.248  1.00  0.00     0.006 A 
ATOM     14  S   UNL     1      -2.285   5.124  -1.272  1.00  0.00    -0.149 S 
ATOM     15  C   UNL     1      -1.315   2.874  -1.418  1.00  0.00     0.015 A 
ATOM     16  C   UNL     1      -0.517   5.092  -1.517  1.00  0.00     0.065 A 
ATOM     17  C   UNL     1      -0.264   3.761  -1.559  1.00  0.00     0.012 A 
ENDBRANCH  12  13
ENDBRANCH  11  12
ENDBRANCH   7  11
ENDBRANCH   2   4
ENDBRANCH   1   2
BRANCH   1  18
ATOM     18  O   UNL     1      -9.224  -2.955   1.054  1.00  0.00    -0.457 OA
BRANCH  18  19
ATOM     19  C   UNL     1     -10.517  -3.274   1.225  1.00  0.00     0.308 C 
ATOM     20  O   UNL     1     -11.344  -2.401   1.340  1.00  0.00    -0.252 OA
BRANCH  19  21
ATOM     21  C   UNL     1     -10.937  -4.720   1.272  1.00  0.00     0.152 C 
BRANCH  21  22
ATOM     22  C   UNL     1     -12.451  -4.806   1.473  1.00  0.00     0.125 C 
BRANCH  22  23
ATOM     23  C   UNL     1     -12.887  -6.246   1.397  1.00  0.00    -0.025 A 
ATOM     24  C   UNL     1     -14.043  -6.653   2.038  1.00  0.00     0.007 A 
ATOM     25  C   UNL     1     -12.135  -7.160   0.682  1.00  0.00     0.007 A 
ATOM     26  C   UNL     1     -14.443  -7.974   1.969  1.00  0.00     0.021 A 
ATOM     27  C   UNL     1     -12.531  -8.482   0.617  1.00  0.00     0.021 A 
ATOM     28  C   UNL     1     -13.688  -8.889   1.258  1.00  0.00     0.041 A 
ATOM     29  Cl  UNL     1     -14.191 -10.549   1.171  1.00  0.00    -0.084 Cl
ENDBRANCH  22  23
BRANCH  22  30
ATOM     30  N   UNL     1     -12.801  -4.258   2.786  1.00  0.00    -0.331 N 
ATOM     31  C   UNL     1     -12.354  -4.857   3.907  1.00  0.00     0.312 C 
ATOM     32  H   UNL     1     -13.389  -3.415   2.852  1.00  0.00     0.166 HD
ATOM     33  O   UNL     1     -11.584  -5.795   3.829  1.00  0.00    -0.249 OA
ATOM     34  N   UNL     1     -12.760  -4.417   5.114  1.00  0.00    -0.352 N 
ATOM     35  H   UNL     1     -13.412  -3.622   5.180  1.00  0.00     0.161 HD
ATOM     36  H   UNL     1     -12.418  -4.875   5.971  1.00  0.00     0.161 HD
ENDBRANCH  22  30
ENDBRANCH  21  22
ENDBRANCH  19  21
ENDBRANCH  18  19
ENDBRANCH   1  18
TORSDOF 11
