REMARK SMILES CCn1c(COc2cc(C)cc(C)c2)nnc1SCC(=O)Nc1nc(-c2ccc(C)c(C)c2)cs1
REMARK SMILES IDX 18 1 17 2 3 3 4 4 16 5 15 6 2 7 1 8 5 9 6 10 7 11 8 12 14 13
REMARK SMILES IDX 9 14 12 15 11 16 10 17 13 18 19 19 20 20 21 21 22 22 23 24
REMARK SMILES IDX 35 25 24 26 34 27 25 28 26 29 33 30 27 31 31 32 28 33 29 34
REMARK SMILES IDX 32 35 30 36
REMARK H PARENT 22 23
REMARK Flexibility Score: inf
ROOT
ATOM      1  S   UNL     1       4.758   3.175   1.551  1.00  0.00    -0.076 SA
ENDROOT
BRANCH   1   2
ATOM      2  C   UNL     1       3.361   2.667   0.605  1.00  0.00     0.191 A 
ATOM      3  N   UNL     1       2.165   2.226   1.095  1.00  0.00    -0.303 N 
ATOM      4  C   UNL     1       1.397   1.946  -0.001  1.00  0.00     0.171 A 
ATOM      5  N   UNL     1       3.272   2.645  -0.705  1.00  0.00    -0.123 NA
ATOM      6  N   UNL     1       2.111   2.220  -1.056  1.00  0.00    -0.131 NA
BRANCH   3   7
ATOM      7  C   UNL     1       1.786   2.080   2.502  1.00  0.00     0.123 C 
ATOM      8  C   UNL     1       2.154   0.676   2.987  1.00  0.00     0.028 C 
ENDBRANCH   3   7
BRANCH   4   9
ATOM      9  C   UNL     1      -0.017   1.425   0.010  1.00  0.00     0.307 C 
BRANCH   9  10
ATOM     10  O   UNL     1       0.002  -0.004   0.002  1.00  0.00    -0.486 OA
BRANCH  10  11
ATOM     11  C   UNL     1      -1.200  -0.637   0.010  1.00  0.00     0.120 A 
ATOM     12  C   UNL     1      -1.255  -2.024   0.003  1.00  0.00     0.049 A 
ATOM     13  C   UNL     1      -2.374   0.101   0.031  1.00  0.00     0.049 A 
ATOM     14  C   UNL     1      -2.479  -2.665   0.011  1.00  0.00    -0.047 A 
ATOM     15  C   UNL     1      -3.595  -0.545   0.033  1.00  0.00    -0.047 A 
ATOM     16  C   UNL     1      -3.648  -1.927   0.026  1.00  0.00     0.007 A 
ATOM     17  C   UNL     1      -2.539  -4.171   0.003  1.00  0.00     0.044 C 
ATOM     18  C   UNL     1      -4.872   0.257   0.048  1.00  0.00     0.044 C 
ENDBRANCH  10  11
ENDBRANCH   9  10
ENDBRANCH   4   9
ENDBRANCH   1   2
BRANCH   1  19
ATOM     19  C   UNL     1       5.901   3.609   0.216  1.00  0.00     0.178 C 
BRANCH  19  20
ATOM     20  C   UNL     1       7.204   4.085   0.806  1.00  0.00     0.236 C 
ATOM     21  O   UNL     1       7.346   4.127   2.009  1.00  0.00    -0.274 OA
ATOM     22  N   UNL     1       8.211   4.465  -0.005  1.00  0.00    -0.301 N 
ATOM     23  H   UNL     1       8.090   4.431  -1.028  1.00  0.00     0.172 HD
BRANCH  22  24
ATOM     24  C   UNL     1       9.412   4.904   0.538  1.00  0.00     0.189 A 
ATOM     25  S   UNL     1       9.883   5.071   2.254  1.00  0.00    -0.105 S 
ATOM     26  N   UNL     1      10.506   5.315  -0.076  1.00  0.00    -0.220 NA
ATOM     27  C   UNL     1      11.541   5.680   1.972  1.00  0.00     0.097 A 
ATOM     28  C   UNL     1      11.573   5.704   0.606  1.00  0.00     0.084 A 
BRANCH  28  29
ATOM     29  C   UNL     1      12.791   6.160  -0.107  1.00  0.00     0.001 A 
ATOM     30  C   UNL     1      12.787   6.277  -1.496  1.00  0.00     0.014 A 
ATOM     31  C   UNL     1      13.946   6.469   0.610  1.00  0.00     0.010 A 
ATOM     32  C   UNL     1      13.922   6.706  -2.153  1.00  0.00    -0.048 A 
ATOM     33  C   UNL     1      15.077   6.892  -0.058  1.00  0.00     0.004 A 
ATOM     34  C   UNL     1      15.065   7.011  -1.437  1.00  0.00    -0.048 A 
ATOM     35  C   UNL     1      13.917   6.838  -3.654  1.00  0.00     0.044 C 
ATOM     36  C   UNL     1      16.303   7.474  -2.161  1.00  0.00     0.044 C 
ENDBRANCH  28  29
ENDBRANCH  22  24
ENDBRANCH  19  20
ENDBRANCH   1  19
TORSDOF 9
