REMARK SMILES CCc1cc2c(CSc3nnc(-c4ccc(OC(F)F)cc4)n3N)cc(=O)oc2cc1O
REMARK SMILES IDX 9 1 10 2 11 3 12 4 23 5 8 6 7 7 6 8 3 9 31 10 4 11 30 12
REMARK SMILES IDX 5 13 29 14 28 15 25 16 26 17 27 18 2 19 1 20 32 21 24 23
REMARK SMILES IDX 13 26 22 27 14 28 21 29 15 30 16 31 17 32 18 33 19 34 20 35
REMARK H PARENT 32 22 24 24 24 25
REMARK Flexibility Score: inf
ROOT
ATOM      1  C   UNL     1      -0.570  -2.106  -0.165  1.00  0.00     0.210 A 
ATOM      2  N   UNL     1       0.698  -2.008   0.164  1.00  0.00    -0.121 NA
ATOM      3  N   UNL     1       1.035  -0.772   0.262  1.00  0.00    -0.127 NA
ATOM      4  C   UNL     1       0.002  -0.004   0.002  1.00  0.00     0.183 A 
ATOM      5  N   UNL     1      -1.060  -0.835  -0.273  1.00  0.00    -0.217 N 
ENDROOT
BRANCH   1   6
ATOM      6  S   UNL     1      -1.474  -3.598  -0.411  1.00  0.00    -0.080 SA
BRANCH   6   7
ATOM      7  C   UNL     1      -0.172  -4.812  -0.086  1.00  0.00     0.114 C 
BRANCH   7   8
ATOM      8  C   UNL     1      -0.731  -6.203  -0.242  1.00  0.00    -0.019 A 
ATOM      9  C   UNL     1      -1.928  -6.996   3.208  1.00  0.00    -0.006 A 
ATOM     10  C   UNL     1      -2.434  -8.281   3.025  1.00  0.00     0.122 A 
ATOM     11  C   UNL     1      -1.376  -6.315   2.163  1.00  0.00     0.019 A 
ATOM     12  C   UNL     1      -2.394  -8.882   1.776  1.00  0.00     0.094 A 
ATOM     13  C   UNL     1      -1.318  -6.910   0.898  1.00  0.00     0.022 A 
ATOM     14  C   UNL     1      -1.832  -8.206   0.705  1.00  0.00     0.142 A 
ATOM     15  O   UNL     1      -1.769  -8.779  -0.516  1.00  0.00    -0.423 OA
ATOM     16  C   UNL     1      -0.698  -6.837  -1.443  1.00  0.00     0.099 A 
ATOM     17  C   UNL     1      -1.227  -8.138  -1.564  1.00  0.00     0.336 A 
ATOM     18  O   UNL     1      -1.192  -8.695  -2.647  1.00  0.00    -0.246 OA
BRANCH   9  19
ATOM     19  C   UNL     1      -1.991  -6.355   4.571  1.00  0.00     0.036 C 
ATOM     20  C   UNL     1      -3.396  -5.797   4.807  1.00  0.00     0.009 C 
ENDBRANCH   9  19
BRANCH  10  21
ATOM     21  O   UNL     1      -2.981  -8.946   4.074  1.00  0.00    -0.508 OA
ATOM     22  H   UNL     1      -3.698  -8.352   4.410  1.00  0.00     0.293 HD
ENDBRANCH  10  21
ENDBRANCH   7   8
ENDBRANCH   6   7
ENDBRANCH   1   6
BRANCH   5  23
ATOM     23  N   UNL     1      -2.336  -0.466  -0.592  1.00  0.00    -0.335 N 
ATOM     24  H   UNL     1      -2.983  -1.248  -0.764  1.00  0.00     0.178 HD
ATOM     25  H   UNL     1      -2.647   0.514  -0.658  1.00  0.00     0.178 HD
ENDBRANCH   5  23
BRANCH   4  26
ATOM     26  C   UNL     1      -0.018   1.474   0.010  1.00  0.00     0.021 A 
ATOM     27  C   UNL     1       1.180   2.190   0.003  1.00  0.00     0.016 A 
ATOM     28  C   UNL     1      -1.235   2.157   0.020  1.00  0.00     0.016 A 
ATOM     29  C   UNL     1       1.157   3.568   0.010  1.00  0.00     0.047 A 
ATOM     30  C   UNL     1      -1.250   3.536   0.033  1.00  0.00     0.047 A 
ATOM     31  C   UNL     1      -0.056   4.245   0.025  1.00  0.00     0.126 A 
BRANCH  31  32
ATOM     32  O   UNL     1      -0.074   5.603   0.033  1.00  0.00    -0.435 OA
BRANCH  32  33
ATOM     33  C   UNL     1      -1.356   6.234   0.048  1.00  0.00     0.542 C 
ATOM     34  F   UNL     1      -2.077   5.855  -1.089  1.00  0.00    -0.167 F 
ATOM     35  F   UNL     1      -2.054   5.843   1.195  1.00  0.00    -0.167 F 
ENDBRANCH  32  33
ENDBRANCH  31  32
ENDBRANCH   4  26
TORSDOF 9
