REMARK SMILES COc1ccc(NC(C)=O)cc1NC(=O)[C@H](C)OC(=O)c1ccc2[nH]c3c(c2c1)C[C@H](C)CC3
REMARK SMILES IDX 16 1 17 2 18 3 19 4 20 5 21 6 32 7 31 8 30 9 33 10 27 11
REMARK SMILES IDX 34 12 26 13 28 14 25 15 24 16 29 17 23 19 22 20 14 21 15 22
REMARK SMILES IDX 13 23 12 25 3 26 11 27 4 28 6 29 5 30 2 31 1 32 7 33 8 34
REMARK SMILES IDX 10 36 9 37
REMARK H PARENT 25 18 13 24 7 35
REMARK Flexibility Score: inf
ROOT
ATOM      1  C   UNL     1      -5.099  -0.963   0.768  1.00  0.00     0.262 C 
ATOM      2  C   UNL     1      -5.242   0.118   1.841  1.00  0.00     0.064 C 
ENDROOT
BRANCH   1   3
ATOM      3  O   UNL     1      -5.938  -2.098   1.109  1.00  0.00    -0.449 OA
BRANCH   3   4
ATOM      4  C   UNL     1      -7.201  -2.088   0.640  1.00  0.00     0.338 C 
ATOM      5  O   UNL     1      -7.591  -1.156  -0.035  1.00  0.00    -0.246 OA
BRANCH   4   6
ATOM      6  C   UNL     1      -8.111  -3.208   0.947  1.00  0.00     0.060 A 
ATOM      7  C   UNL     1     -14.904  -3.826  -1.411  1.00  0.00     0.008 C 
ATOM      8  C   UNL     1     -13.786  -4.676  -0.802  1.00  0.00    -0.009 C 
ATOM      9  C   UNL     1     -12.618  -3.769  -0.395  1.00  0.00     0.041 C 
ATOM     10  C   UNL     1     -14.316  -5.405   0.436  1.00  0.00     0.010 C 
ATOM     11  C   UNL     1     -11.651  -4.579   0.430  1.00  0.00    -0.019 A 
ATOM     12  C   UNL     1     -13.284  -6.440   0.900  1.00  0.00     0.054 C 
ATOM     13  C   UNL     1     -11.938  -5.762   1.005  1.00  0.00     0.019 A 
ATOM     14  C   UNL     1     -10.265  -4.260   0.759  1.00  0.00     0.004 A 
ATOM     15  N   UNL     1     -10.839  -6.224   1.675  1.00  0.00    -0.358 N 
ATOM     16  C   UNL     1      -9.799  -5.334   1.545  1.00  0.00     0.046 A 
ATOM     17  C   UNL     1      -9.415  -3.197   0.463  1.00  0.00     0.026 A 
ATOM     18  H   UNL     1     -10.797  -7.109   2.199  1.00  0.00     0.166 HD
ATOM     19  C   UNL     1      -8.489  -5.324   2.020  1.00  0.00     0.027 A 
ATOM     20  C   UNL     1      -7.658  -4.285   1.722  1.00  0.00     0.018 A 
ENDBRANCH   4   6
ENDBRANCH   3   4
ENDBRANCH   1   3
BRANCH   1  21
ATOM     21  C   UNL     1      -3.661  -1.406   0.690  1.00  0.00     0.265 C 
ATOM     22  O   UNL     1      -3.371  -2.565   0.902  1.00  0.00    -0.270 OA
ATOM     23  N   UNL     1      -2.696  -0.515   0.386  1.00  0.00    -0.320 N 
ATOM     24  H   UNL     1      -2.929   0.484   0.293  1.00  0.00     0.170 HD
BRANCH  23  25
ATOM     25  C   UNL     1      -1.378  -0.948   0.195  1.00  0.00     0.086 A 
ATOM     26  C   UNL     1      -0.326  -0.039   0.280  1.00  0.00     0.142 A 
ATOM     27  C   UNL     1      -1.118  -2.282  -0.083  1.00  0.00     0.056 A 
ATOM     28  C   UNL     1       0.978  -0.470   0.097  1.00  0.00     0.051 A 
ATOM     29  C   UNL     1       0.190  -2.709  -0.265  1.00  0.00     0.043 A 
ATOM     30  C   UNL     1       1.236  -1.801  -0.175  1.00  0.00     0.030 A 
BRANCH  26  31
ATOM     31  O   UNL     1      -0.578   1.270   0.547  1.00  0.00    -0.495 OA
ATOM     32  C   UNL     1       0.549   2.146   0.625  1.00  0.00     0.278 C 
ENDBRANCH  26  31
BRANCH  29  33
ATOM     33  N   UNL     1       0.454  -4.057  -0.541  1.00  0.00    -0.326 N 
ATOM     34  C   UNL     1       1.560  -4.643  -0.039  1.00  0.00     0.221 C 
ATOM     35  H   UNL     1      -0.196  -4.600  -1.126  1.00  0.00     0.169 HD
ATOM     36  O   UNL     1       2.368  -3.983   0.580  1.00  0.00    -0.275 OA
ATOM     37  C   UNL     1       1.791  -6.117  -0.247  1.00  0.00     0.114 C 
ENDBRANCH  29  33
ENDBRANCH  23  25
ENDBRANCH   1  21
TORSDOF 7
