REMARK SMILES C[N@H+](CCC(=O)Nc1sc2c(c1C(N)=O)CCCC2)Cc1ccc(C(=O)NCC(F)(F)F)cc1
REMARK SMILES IDX 1 1 2 2 3 4 4 5 5 6 6 7 7 8 8 10 9 11 12 12 10 13 11 14
REMARK SMILES IDX 19 15 16 16 18 17 17 18 13 19 15 20 14 21 20 24 21 25 34 26
REMARK SMILES IDX 22 27 33 28 23 29 24 30 25 31 26 32 27 33 28 35 29 36 30 37
REMARK SMILES IDX 31 38 32 39
REMARK H PARENT 2 3 7 9 14 22 14 23 27 34
REMARK Flexibility Score: inf
ROOT
ATOM      1  C   UNL     1      -6.904  -0.305  -2.034  1.00  0.00     0.333 C 
ATOM      2  N   UNL     1      -6.559  -1.564  -1.360  1.00  0.00    -0.333 N 
ATOM      3  H   UNL     1      -5.768  -1.987  -1.866  1.00  0.00     0.348 HD
ENDROOT
BRANCH   2   4
ATOM      4  C   UNL     1      -7.682  -2.510  -1.406  1.00  0.00     0.272 C 
BRANCH   4   5
ATOM      5  C   UNL     1      -7.937  -2.930  -2.855  1.00  0.00     0.161 C 
BRANCH   5   6
ATOM      6  C   UNL     1      -9.089  -3.900  -2.901  1.00  0.00     0.230 C 
ATOM      7  O   UNL     1      -9.651  -4.224  -1.877  1.00  0.00    -0.274 OA
ATOM      8  N   UNL     1      -9.495  -4.408  -4.082  1.00  0.00    -0.317 N 
ATOM      9  H   UNL     1      -9.018  -4.133  -4.952  1.00  0.00     0.170 HD
BRANCH   8  10
ATOM     10  C   UNL     1     -10.555  -5.301  -4.125  1.00  0.00     0.108 A 
ATOM     11  S   UNL     1     -11.506  -5.907  -2.810  1.00  0.00    -0.122 S 
ATOM     12  C   UNL     1     -11.116  -5.920  -5.233  1.00  0.00     0.077 A 
ATOM     13  C   UNL     1     -12.607  -6.957  -3.714  1.00  0.00     0.011 A 
ATOM     14  C   UNL     1     -12.229  -6.826  -5.004  1.00  0.00    -0.019 A 
ATOM     15  C   UNL     1     -13.718  -7.809  -3.181  1.00  0.00     0.047 C 
ATOM     16  C   UNL     1     -12.946  -7.586  -6.113  1.00  0.00     0.037 C 
ATOM     17  C   UNL     1     -14.612  -8.229  -4.356  1.00  0.00     0.006 C 
ATOM     18  C   UNL     1     -13.724  -8.747  -5.491  1.00  0.00     0.005 C 
BRANCH  12  19
ATOM     19  C   UNL     1     -10.602  -5.674  -6.584  1.00  0.00     0.251 C 
ATOM     20  O   UNL     1      -9.716  -6.376  -7.035  1.00  0.00    -0.269 OA
ATOM     21  N   UNL     1     -11.111  -4.670  -7.325  1.00  0.00    -0.365 N 
ATOM     22  H   UNL     1     -11.860  -4.076  -6.943  1.00  0.00     0.159 HD
ATOM     23  H   UNL     1     -10.749  -4.497  -8.274  1.00  0.00     0.159 HD
ENDBRANCH  12  19
ENDBRANCH   8  10
ENDBRANCH   5   6
ENDBRANCH   4   5
ENDBRANCH   2   4
BRANCH   2  24
ATOM     24  C   UNL     1      -6.131  -1.321   0.024  1.00  0.00     0.298 C 
BRANCH  24  25
ATOM     25  C   UNL     1      -4.837  -0.550   0.021  1.00  0.00     0.006 A 
ATOM     26  C   UNL     1      -3.631  -1.228   0.012  1.00  0.00     0.010 A 
ATOM     27  C   UNL     1      -4.859   0.834   0.029  1.00  0.00     0.010 A 
ATOM     28  C   UNL     1      -2.442  -0.528   0.005  1.00  0.00     0.014 A 
ATOM     29  C   UNL     1      -3.677   1.546   0.028  1.00  0.00     0.014 A 
ATOM     30  C   UNL     1      -2.458   0.867   0.018  1.00  0.00     0.039 A 
BRANCH  30  31
ATOM     31  C   UNL     1      -1.187   1.624   0.017  1.00  0.00     0.251 C 
ATOM     32  O   UNL     1      -1.204   2.839   0.023  1.00  0.00    -0.269 OA
ATOM     33  N   UNL     1      -0.011   0.966   0.007  1.00  0.00    -0.343 N 
ATOM     34  H   UNL     1       0.003  -0.064   0.006  1.00  0.00     0.164 HD
BRANCH  33  35
ATOM     35  C   UNL     1       1.248   1.716  -0.001  1.00  0.00     0.231 C 
BRANCH  35  36
ATOM     36  C   UNL     1       2.424   0.737  -0.017  1.00  0.00     0.405 C 
ATOM     37  F   UNL     1       2.350  -0.062  -1.163  1.00  0.00    -0.169 F 
ATOM     38  F   UNL     1       3.626   1.453  -0.025  1.00  0.00    -0.169 F 
ATOM     39  F   UNL     1       2.372  -0.074   1.121  1.00  0.00    -0.169 F 
ENDBRANCH  35  36
ENDBRANCH  33  35
ENDBRANCH  30  31
ENDBRANCH  24  25
ENDBRANCH   2  24
TORSDOF 10
