REMARK SMILES Cc1[nH]c2c(C(=O)N3CCC(Oc4cccc(C[N@H+](C)Cc5cccs5)c4)CC3)cccc2c1C
REMARK SMILES IDX 13 1 14 2 15 3 16 4 17 5 27 6 12 7 11 8 6 9 7 10 8 11 29 12
REMARK SMILES IDX 9 13 28 14 10 15 5 16 35 17 34 18 33 19 2 20 4 21 32 22 3 23
REMARK SMILES IDX 1 24 31 25 30 27 18 28 19 29 20 30 21 32 22 33 26 34 23 35
REMARK SMILES IDX 25 36 24 37
REMARK H PARENT 3 26 19 31
REMARK Flexibility Score: inf
ROOT
ATOM      1  C   UNL     1      -0.200   3.026   2.204  1.00  0.00     0.120 A 
ATOM      2  C   UNL     1       0.720   2.079   1.778  1.00  0.00     0.046 A 
ATOM      3  C   UNL     1       0.449   0.734   1.939  1.00  0.00     0.004 A 
ATOM      4  C   UNL     1      -0.738   0.331   2.523  1.00  0.00     0.010 A 
ATOM      5  C   UNL     1      -1.656   1.273   2.949  1.00  0.00     0.010 A 
ATOM      6  C   UNL     1      -1.390   2.620   2.790  1.00  0.00     0.056 A 
ENDROOT
BRANCH   1   7
ATOM      7  O   UNL     1       0.064   4.350   2.047  1.00  0.00    -0.490 OA
BRANCH   7   8
ATOM      8  C   UNL     1       1.343   4.697   1.513  1.00  0.00     0.176 C 
ATOM      9  C   UNL     1       4.495   7.330   1.592  1.00  0.00     0.255 C 
ATOM     10  O   UNL     1       5.385   7.185   2.409  1.00  0.00    -0.269 OA
ATOM     11  N   UNL     1       3.659   6.309   1.318  1.00  0.00    -0.338 N 
ATOM     12  C   UNL     1       3.757   5.043   2.055  1.00  0.00     0.123 C 
ATOM     13  C   UNL     1       2.633   6.442   0.275  1.00  0.00     0.123 C 
ATOM     14  C   UNL     1       2.381   4.704   2.638  1.00  0.00     0.067 C 
ATOM     15  C   UNL     1       1.269   6.088   0.877  1.00  0.00     0.067 C 
BRANCH   9  16
ATOM     16  C   UNL     1       4.332   8.623   0.901  1.00  0.00     0.064 A 
ATOM     17  C   UNL     1       4.802  13.578   1.614  1.00  0.00     0.047 C 
ATOM     18  C   UNL     1       4.810  12.092   1.859  1.00  0.00    -0.023 A 
ATOM     19  C   UNL     1       4.447  11.046   0.898  1.00  0.00     0.003 A 
ATOM     20  C   UNL     1       5.152  11.472   2.999  1.00  0.00     0.016 A 
ATOM     21  C   UNL     1       4.609   9.824   1.575  1.00  0.00     0.059 A 
ATOM     22  C   UNL     1       4.016  11.058  -0.429  1.00  0.00     0.010 A 
ATOM     23  N   UNL     1       5.036  10.116   2.845  1.00  0.00    -0.358 N 
ATOM     24  C   UNL     1       5.595  12.164   4.262  1.00  0.00     0.064 C 
ATOM     25  C   UNL     1       3.748   9.870  -1.077  1.00  0.00     0.002 A 
ATOM     26  H   UNL     1       5.240   9.419   3.575  1.00  0.00     0.166 HD
ATOM     27  C   UNL     1       3.908   8.661  -0.425  1.00  0.00     0.016 A 
ENDBRANCH   9  16
ENDBRANCH   7   8
ENDBRANCH   1   7
BRANCH   5  28
ATOM     28  C   UNL     1      -2.948   0.831   3.585  1.00  0.00     0.299 C 
BRANCH  28  29
ATOM     29  N   UNL     1      -3.962   0.643   2.526  1.00  0.00    -0.329 N 
ATOM     30  C   UNL     1      -4.311   1.948   1.925  1.00  0.00     0.333 C 
ATOM     31  H   UNL     1      -3.572   0.032   1.794  1.00  0.00     0.348 HD
BRANCH  29  32
ATOM     32  C   UNL     1      -5.170   0.007   3.090  1.00  0.00     0.310 C 
BRANCH  32  33
ATOM     33  C   UNL     1      -6.093  -0.372   1.960  1.00  0.00     0.059 A 
ATOM     34  S   UNL     1      -7.408   0.578   1.216  1.00  0.00    -0.143 S 
ATOM     35  C   UNL     1      -6.135  -1.521   1.242  1.00  0.00     0.021 A 
ATOM     36  C   UNL     1      -7.930  -0.623   0.002  1.00  0.00     0.065 A 
ATOM     37  C   UNL     1      -7.080  -1.652   0.242  1.00  0.00     0.012 A 
ENDBRANCH  32  33
ENDBRANCH  29  32
ENDBRANCH  28  29
ENDBRANCH   5  28
TORSDOF 7
