REMARK SMILES CCc1cc(-c2nnc(SCC(=O)Nc3nnc(C4CCCCC4)s3)n2C[C@H]2CCCO2)cs1
REMARK SMILES IDX 11 1 10 2 9 3 6 4 26 5 7 6 8 7 5 8 3 9 34 10 4 11 33 12 2 13
REMARK SMILES IDX 1 14 27 15 28 16 32 17 29 18 31 19 30 20 12 21 13 22 14 23
REMARK SMILES IDX 15 25 25 26 16 27 18 28 17 29 19 30 24 31 20 32 23 33 21 34
REMARK SMILES IDX 22 35
REMARK H PARENT 14 24
REMARK Flexibility Score: inf
ROOT
ATOM      1  C   UNL     1       1.785  -6.954   0.051  1.00  0.00     0.178 C 
ENDROOT
BRANCH   1   2
ATOM      2  S   UNL     1       3.029  -5.656   0.264  1.00  0.00    -0.076 SA
BRANCH   2   3
ATOM      3  C   UNL     1       2.014  -4.227   0.086  1.00  0.00     0.192 A 
ATOM      4  C   UNL     1       1.295  -2.167  -0.043  1.00  0.00     0.165 A 
ATOM      5  N   UNL     1       2.427  -2.925   0.149  1.00  0.00    -0.299 N 
ATOM      6  N   UNL     1       0.297  -3.003  -0.215  1.00  0.00    -0.129 NA
ATOM      7  N   UNL     1       0.720  -4.214  -0.139  1.00  0.00    -0.123 NA
BRANCH   4   8
ATOM      8  C   UNL     1       1.218  -0.691  -0.060  1.00  0.00     0.030 A 
ATOM      9  C   UNL     1       0.076   1.311  -0.595  1.00  0.00     0.005 A 
ATOM     10  S   UNL     1       1.631   1.727   0.177  1.00  0.00    -0.148 S 
ATOM     11  C   UNL     1       0.109  -0.040  -0.598  1.00  0.00     0.027 A 
ATOM     12  C   UNL     1       2.235   0.070   0.452  1.00  0.00     0.077 A 
BRANCH   9  13
ATOM     13  C   UNL     1      -0.997   2.231  -1.117  1.00  0.00     0.043 C 
ATOM     14  C   UNL     1      -2.003   2.524  -0.003  1.00  0.00     0.010 C 
ENDBRANCH   9  13
ENDBRANCH   4   8
BRANCH   5  15
ATOM     15  C   UNL     1       3.790  -2.438   0.377  1.00  0.00     0.158 C 
BRANCH  15  16
ATOM     16  C   UNL     1       4.077  -2.412   1.879  1.00  0.00     0.138 C 
ATOM     17  O   UNL     1       3.183  -1.505   2.542  1.00  0.00    -0.376 OA
ATOM     18  C   UNL     1       5.496  -1.848   2.145  1.00  0.00     0.036 C 
ATOM     19  C   UNL     1       3.868  -0.830   3.603  1.00  0.00     0.160 C 
ATOM     20  C   UNL     1       5.334  -1.315   3.595  1.00  0.00     0.031 C 
ENDBRANCH  15  16
ENDBRANCH   5  15
ENDBRANCH   2   3
ENDBRANCH   1   2
BRANCH   1  21
ATOM     21  C   UNL     1       2.444  -8.304   0.168  1.00  0.00     0.236 C 
ATOM     22  O   UNL     1       3.636  -8.382   0.375  1.00  0.00    -0.274 OA
ATOM     23  N   UNL     1       1.708  -9.426   0.043  1.00  0.00    -0.300 N 
ATOM     24  H   UNL     1       0.695  -9.360  -0.133  1.00  0.00     0.172 HD
BRANCH  23  25
ATOM     25  C   UNL     1       2.315 -10.672   0.150  1.00  0.00     0.212 A 
ATOM     26  S   UNL     1       1.615 -12.261   0.039  1.00  0.00    -0.079 S 
ATOM     27  N   UNL     1       3.583 -10.975   0.371  1.00  0.00    -0.120 NA
ATOM     28  C   UNL     1       3.133 -13.171   0.296  1.00  0.00     0.122 A 
ATOM     29  N   UNL     1       3.980 -12.171   0.442  1.00  0.00    -0.141 NA
BRANCH  28  30
ATOM     30  C   UNL     1       3.374 -14.658   0.341  1.00  0.00     0.051 C 
ATOM     31  C   UNL     1       4.370 -15.046  -0.754  1.00  0.00     0.011 C 
ATOM     32  C   UNL     1       3.943 -15.041   1.708  1.00  0.00     0.011 C 
ATOM     33  C   UNL     1       4.615 -16.555  -0.709  1.00  0.00     0.001 C 
ATOM     34  C   UNL     1       4.188 -16.551   1.753  1.00  0.00     0.001 C 
ATOM     35  C   UNL     1       5.184 -16.939   0.658  1.00  0.00     0.000 C 
ENDBRANCH  28  30
ENDBRANCH  23  25
ENDBRANCH   1  21
TORSDOF 9
