REMARK SMILES C[C@H]1[C@@H]2[C@@H](O)[C@@H]([C@H](C)C(=O)NC3CCCCC3)CC[C@@]2(C)CC[C@@H]1NC(=O)c1ccc(C#N)cc1
REMARK SMILES IDX 1 1 2 2 24 3 23 4 22 5 20 6 3 7 4 8 6 9 18 10 19 11 21 12
REMARK SMILES IDX 25 13 26 14 27 16 28 17 35 18 29 19 34 20 30 21 31 22 32 23
REMARK SMILES IDX 33 24 5 25 7 27 8 28 9 29 10 30 11 31 12 33 17 34 13 35
REMARK SMILES IDX 16 36 14 37 15 38
REMARK H PARENT 25 15 5 26 11 32
REMARK Flexibility Score: inf
ROOT
ATOM      1  C   UNL     1       2.565   0.280  -8.841  1.00  0.00     0.010 C 
ATOM      2  C   UNL     1       2.926   1.708  -8.427  1.00  0.00     0.014 C 
ATOM      3  C   UNL     1       4.300   1.712  -7.753  1.00  0.00     0.085 C 
ATOM      4  C   UNL     1       4.660   3.140  -7.339  1.00  0.00     0.026 C 
ATOM      5  C   UNL     1       3.611   3.667  -6.358  1.00  0.00     0.009 C 
ATOM      6  C   UNL     1       2.237   3.663  -7.032  1.00  0.00    -0.027 C 
ATOM      7  C   UNL     1       1.876   2.235  -7.446  1.00  0.00     0.029 C 
ATOM      8  C   UNL     1       0.502   2.231  -8.119  1.00  0.00     0.122 C 
ATOM      9  C   UNL     1      -0.548   2.758  -7.139  1.00  0.00     0.030 C 
ATOM     10  C   UNL     1      -0.187   4.186  -6.724  1.00  0.00     0.007 C 
ATOM     11  C   UNL     1       1.187   4.190  -6.051  1.00  0.00     0.007 C 
ATOM     12  C   UNL     1       2.273   4.560  -8.270  1.00  0.00     0.012 C 
ENDROOT
BRANCH   3  13
ATOM     13  N   UNL     1       5.305   1.207  -8.692  1.00  0.00    -0.349 N 
ATOM     14  C   UNL     1       6.440   0.648  -8.228  1.00  0.00     0.251 C 
ATOM     15  H   UNL     1       5.144   1.280  -9.707  1.00  0.00     0.164 HD
ATOM     16  O   UNL     1       6.629   0.562  -7.030  1.00  0.00    -0.269 OA
BRANCH  14  17
ATOM     17  C   UNL     1       7.455   0.138  -9.176  1.00  0.00     0.039 A 
ATOM     18  C   UNL     1       8.630  -0.441  -8.694  1.00  0.00     0.015 A 
ATOM     19  C   UNL     1       7.234   0.232 -10.551  1.00  0.00     0.015 A 
ATOM     20  C   UNL     1       9.575  -0.916  -9.577  1.00  0.00     0.020 A 
ATOM     21  C   UNL     1       8.181  -0.238 -11.434  1.00  0.00     0.020 A 
ATOM     22  C   UNL     1       9.357  -0.818 -10.953  1.00  0.00     0.052 A 
BRANCH  22  23
ATOM     23  C   UNL     1      10.340  -1.311 -11.871  1.00  0.00     0.099 C 
ATOM     24  N   UNL     1      11.119  -1.703 -12.598  1.00  0.00    -0.192 NA
ENDBRANCH  22  23
ENDBRANCH  14  17
ENDBRANCH   3  13
BRANCH   8  25
ATOM     25  O   UNL     1       0.165   0.897  -8.507  1.00  0.00    -0.392 OA
ATOM     26  H   UNL     1       0.141   0.316  -7.705  1.00  0.00     0.210 HD
ENDBRANCH   8  25
BRANCH   9  27
ATOM     27  C   UNL     1      -0.584   1.861  -5.900  1.00  0.00     0.081 C 
ATOM     28  C   UNL     1      -0.884   0.421  -6.322  1.00  0.00     0.018 C 
BRANCH  27  29
ATOM     29  C   UNL     1      -1.660   2.344  -4.962  1.00  0.00     0.223 C 
ATOM     30  O   UNL     1      -2.332   3.311  -5.255  1.00  0.00    -0.275 OA
ATOM     31  N   UNL     1      -1.876   1.702  -3.797  1.00  0.00    -0.353 N 
ATOM     32  H   UNL     1      -1.306   0.881  -3.547  1.00  0.00     0.163 HD
BRANCH  31  33
ATOM     33  C   UNL     1      -2.922   2.171  -2.884  1.00  0.00     0.082 C 
ATOM     34  C   UNL     1      -4.267   1.569  -3.297  1.00  0.00     0.025 C 
ATOM     35  C   UNL     1      -2.585   1.738  -1.456  1.00  0.00     0.025 C 
ATOM     36  C   UNL     1      -5.359   2.059  -2.344  1.00  0.00     0.002 C 
ATOM     37  C   UNL     1      -3.678   2.228  -0.504  1.00  0.00     0.002 C 
ATOM     38  C   UNL     1      -5.022   1.626  -0.916  1.00  0.00     0.000 C 
ENDBRANCH  31  33
ENDBRANCH  27  29
ENDBRANCH   9  27
TORSDOF 7
