REMARK SMILES C[C@@H](Sc1nnc(-c2c[nH]c3ccccc23)n1C1CC1)C(=O)N[C@H](C)c1ccc2c(c1)CCCC2
REMARK SMILES IDX 2 1 1 2 21 3 23 4 22 6 24 7 25 8 26 9 31 10 27 11 30 12
REMARK SMILES IDX 28 13 29 14 32 15 35 16 33 17 34 18 3 19 4 20 17 21 5 22
REMARK SMILES IDX 7 23 6 24 18 25 20 26 19 27 8 28 16 29 9 30 11 31 15 32
REMARK SMILES IDX 10 33 12 34 14 35 13 37
REMARK H PARENT 23 5 10 36
REMARK Flexibility Score: inf
ROOT
ATOM      1  C   UNL     1       3.389   3.942  -0.086  1.00  0.00     0.141 C 
ATOM      2  C   UNL     1       3.026   4.343  -1.518  1.00  0.00     0.030 C 
ENDROOT
BRANCH   1   3
ATOM      3  C   UNL     1       4.883   4.024   0.095  1.00  0.00     0.233 C 
ATOM      4  N   UNL     1       5.460   5.199   0.415  1.00  0.00    -0.349 N 
ATOM      5  H   UNL     1       4.880   6.042   0.535  1.00  0.00     0.164 HD
ATOM      6  O   UNL     1       5.566   3.032  -0.048  1.00  0.00    -0.274 OA
BRANCH   4   7
ATOM      7  C   UNL     1       6.912   5.279   0.591  1.00  0.00     0.109 C 
ATOM      8  C   UNL     1       7.275   4.878   2.022  1.00  0.00     0.036 C 
BRANCH   7   9
ATOM      9  C   UNL     1       7.373   6.690   0.331  1.00  0.00    -0.026 A 
ATOM     10  C   UNL     1       8.549   6.919  -0.352  1.00  0.00     0.009 A 
ATOM     11  C   UNL     1       6.622   7.759   0.783  1.00  0.00     0.006 A 
ATOM     12  C   UNL     1       8.979   8.216  -0.601  1.00  0.00    -0.044 A 
ATOM     13  C   UNL     1       7.049   9.047   0.539  1.00  0.00     0.004 A 
ATOM     14  C   UNL     1       8.229   9.281  -0.156  1.00  0.00    -0.045 A 
ATOM     15  C   UNL     1      10.273   8.394  -1.352  1.00  0.00     0.036 C 
ATOM     16  C   UNL     1       8.629  10.712  -0.399  1.00  0.00     0.036 C 
ATOM     17  C   UNL     1      10.379   9.811  -1.911  1.00  0.00     0.005 C 
ATOM     18  C   UNL     1      10.107  10.801  -0.772  1.00  0.00     0.005 C 
ENDBRANCH   7   9
ENDBRANCH   4   7
ENDBRANCH   1   3
BRANCH   1  19
ATOM     19  S   UNL     1       2.835   2.248   0.225  1.00  0.00    -0.073 SA
BRANCH  19  20
ATOM     20  C   UNL     1       1.092   2.467   0.099  1.00  0.00     0.192 A 
ATOM     21  N   UNL     1       0.139   1.497   0.247  1.00  0.00    -0.299 N 
ATOM     22  N   UNL     1       0.465   3.592  -0.155  1.00  0.00    -0.123 NA
ATOM     23  C   UNL     1      -1.068   2.131   0.057  1.00  0.00     0.167 A 
ATOM     24  N   UNL     1      -0.805   3.397  -0.176  1.00  0.00    -0.129 NA
BRANCH  21  25
ATOM     25  C   UNL     1       0.357   0.078   0.539  1.00  0.00     0.091 C 
ATOM     26  C   UNL     1       1.096  -0.754  -0.511  1.00  0.00     0.028 C 
ATOM     27  C   UNL     1       1.795  -0.376   0.798  1.00  0.00     0.028 C 
ENDBRANCH  21  25
BRANCH  23  28
ATOM     28  C   UNL     1      -2.405   1.507   0.110  1.00  0.00     0.045 A 
ATOM     29  C   UNL     1      -3.703   2.201   0.048  1.00  0.00     0.010 A 
ATOM     30  C   UNL     1      -2.678   0.183   0.232  1.00  0.00     0.095 A 
ATOM     31  C   UNL     1      -4.684   1.199   0.132  1.00  0.00     0.046 A 
ATOM     32  C   UNL     1      -4.080   3.537  -0.083  1.00  0.00     0.011 A 
ATOM     33  N   UNL     1      -4.030  -0.009   0.246  1.00  0.00    -0.360 N 
ATOM     34  C   UNL     1      -6.028   1.554   0.094  1.00  0.00     0.027 A 
ATOM     35  C   UNL     1      -5.416   3.868  -0.118  1.00  0.00     0.001 A 
ATOM     36  H   UNL     1      -4.494  -0.925   0.329  1.00  0.00     0.166 HD
ATOM     37  C   UNL     1      -6.386   2.879  -0.030  1.00  0.00     0.002 A 
ENDBRANCH  23  28
ENDBRANCH  19  20
ENDBRANCH   1  19
TORSDOF 7
