REMARK SMILES NC(=O)CCn1c(-c2cccs2)nn(CN2CCc3sccc3[C@H]2c2ccccc2)c1=S
REMARK SMILES IDX 14 1 31 2 32 3 6 4 7 5 13 6 15 7 16 8 24 9 23 10 17 11 19 12
REMARK SMILES IDX 22 13 18 14 20 15 21 16 25 17 28 18 29 19 27 20 30 21 26 22
REMARK SMILES IDX 8 23 12 24 9 25 11 26 10 27 5 28 4 29 2 30 3 31 1 32
REMARK H PARENT 1 33 1 34
REMARK Flexibility Score: inf
ROOT
ATOM      1  N   UNL     1       5.878   2.632  -0.698  1.00  0.00    -0.223 N 
ATOM      2  C   UNL     1       6.484   3.362   0.260  1.00  0.00     0.199 A 
ATOM      3  S   UNL     1       6.253   3.204   1.948  1.00  0.00    -0.038 S 
ATOM      4  N   UNL     1       7.307   4.237  -0.352  1.00  0.00    -0.299 N 
ATOM      5  C   UNL     1       7.207   4.045  -1.717  1.00  0.00     0.172 A 
ATOM      6  N   UNL     1       6.356   3.079  -1.937  1.00  0.00    -0.149 NA
ENDROOT
BRANCH   1   7
ATOM      7  C   UNL     1       4.901   1.561  -0.483  1.00  0.00     0.235 C 
BRANCH   7   8
ATOM      8  N   UNL     1       3.546   2.131  -0.466  1.00  0.00    -0.273 NA
ATOM      9  C   UNL     1       2.563   1.136  -0.019  1.00  0.00     0.120 C 
ATOM     10  C   UNL     1       1.184   1.788   0.000  1.00  0.00    -0.012 A 
ATOM     11  C   UNL     1       3.500   3.356   0.345  1.00  0.00     0.093 C 
ATOM     12  C   UNL     1       1.083   3.147   0.010  1.00  0.00     0.011 A 
ATOM     13  C   UNL     1      -0.013   1.076   0.008  1.00  0.00     0.017 A 
ATOM     14  C   UNL     1       2.212   4.126   0.007  1.00  0.00     0.062 C 
ATOM     15  S   UNL     1      -0.662   3.443   0.027  1.00  0.00    -0.149 S 
ATOM     16  C   UNL     1      -1.194   1.736   0.017  1.00  0.00     0.065 A 
BRANCH   9  17
ATOM     17  C   UNL     1       2.555  -0.035  -0.969  1.00  0.00    -0.026 A 
ATOM     18  C   UNL     1       2.541  -2.182  -2.710  1.00  0.00     0.000 A 
ATOM     19  C   UNL     1       2.668  -0.895  -3.200  1.00  0.00     0.000 A 
ATOM     20  C   UNL     1       2.420  -2.394  -1.350  1.00  0.00     0.000 A 
ATOM     21  C   UNL     1       2.671   0.178  -2.329  1.00  0.00     0.006 A 
ATOM     22  C   UNL     1       2.427  -1.321  -0.479  1.00  0.00     0.006 A 
ENDBRANCH   9  17
ENDBRANCH   7   8
ENDBRANCH   1   7
BRANCH   5  23
ATOM     23  C   UNL     1       7.941   4.798  -2.748  1.00  0.00     0.072 A 
ATOM     24  S   UNL     1       8.830   6.339  -2.598  1.00  0.00    -0.140 S 
ATOM     25  C   UNL     1       8.116   4.500  -4.075  1.00  0.00     0.024 A 
ATOM     26  C   UNL     1       9.379   6.480  -4.290  1.00  0.00     0.065 A 
ATOM     27  C   UNL     1       8.850   5.364  -4.856  1.00  0.00     0.012 A 
ENDBRANCH   5  23
BRANCH   4  28
ATOM     28  C   UNL     1       8.160   5.223   0.316  1.00  0.00     0.136 C 
BRANCH  28  29
ATOM     29  C   UNL     1       9.528   4.601   0.606  1.00  0.00     0.121 C 
BRANCH  29  30
ATOM     30  C   UNL     1      10.405   5.616   1.293  1.00  0.00     0.219 C 
ATOM     31  O   UNL     1       9.979   6.727   1.527  1.00  0.00    -0.275 OA
ATOM     32  N   UNL     1      11.664   5.289   1.647  1.00  0.00    -0.370 N 
ATOM     33  H   UNL     1      12.026   4.345   1.447  1.00  0.00     0.159 HD
ATOM     34  H   UNL     1      12.264   5.982   2.116  1.00  0.00     0.159 HD
ENDBRANCH  29  30
ENDBRANCH  28  29
ENDBRANCH   4  28
TORSDOF 7
