REMARK SMILES CN(C)c1nc(N)nc(COC(=O)/C=C/c2ccc(-c3ccc(Br)cc3)s2)n1
REMARK SMILES IDX 12 1 13 2 11 3 10 4 9 5 4 6 5 7 28 8 6 9 8 10 2 11 1 12 3 13
REMARK SMILES IDX 7 14 14 17 15 18 16 19 27 20 17 21 19 22 18 23 20 24 26 25
REMARK SMILES IDX 21 26 25 27 22 28 23 29 24 30
REMARK H PARENT 7 15 7 16
REMARK Flexibility Score: inf
ROOT
ATOM      1  C   UNL     1      -4.912   1.604   0.034  1.00  0.00     0.331 C 
ATOM      2  O   UNL     1      -5.099   0.401   0.028  1.00  0.00    -0.247 OA
ENDROOT
BRANCH   1   3
ATOM      3  O   UNL     1      -5.963   2.451   0.043  1.00  0.00    -0.454 OA
BRANCH   3   4
ATOM      4  C   UNL     1      -7.267   1.867   0.046  1.00  0.00     0.310 C 
BRANCH   4   5
ATOM      5  C   UNL     1      -8.307   2.958   0.057  1.00  0.00     0.173 A 
ATOM      6  C   UNL     1      -9.685   4.404  -1.078  1.00  0.00     0.230 A 
ATOM      7  N   UNL     1     -10.140   4.880   0.076  1.00  0.00    -0.177 NA
ATOM      8  N   UNL     1      -8.767   3.441  -1.084  1.00  0.00    -0.194 NA
ATOM      9  C   UNL     1      -9.675   4.391   1.221  1.00  0.00     0.225 A 
ATOM     10  N   UNL     1      -8.760   3.425   1.207  1.00  0.00    -0.194 NA
BRANCH   6  11
ATOM     11  N   UNL     1     -10.165   4.909  -2.270  1.00  0.00    -0.347 N 
ATOM     12  C   UNL     1      -9.662   4.384  -3.542  1.00  0.00     0.146 C 
ATOM     13  C   UNL     1     -11.175   5.969  -2.263  1.00  0.00     0.146 C 
ENDBRANCH   6  11
BRANCH   9  14
ATOM     14  N   UNL     1     -10.144   4.882   2.422  1.00  0.00    -0.368 N 
ATOM     15  H   UNL     1      -9.785   4.500   3.309  1.00  0.00     0.159 HD
ATOM     16  H   UNL     1     -10.851   5.630   2.433  1.00  0.00     0.159 HD
ENDBRANCH   9  14
ENDBRANCH   4   5
ENDBRANCH   3   4
ENDBRANCH   1   3
BRANCH   1  17
ATOM     17  C   UNL     1      -3.595   2.113   0.030  1.00  0.00     0.095 C 
ATOM     18  C   UNL     1      -2.537   1.260   0.021  1.00  0.00     0.026 C 
BRANCH  18  19
ATOM     19  C   UNL     1      -1.219   1.770   0.017  1.00  0.00     0.028 A 
ATOM     20  S   UNL     1      -0.673   3.470   0.027  1.00  0.00    -0.136 S 
ATOM     21  C   UNL     1      -0.013   1.076   0.008  1.00  0.00     0.020 A 
ATOM     22  C   UNL     1       1.087   3.174   0.009  1.00  0.00     0.035 A 
ATOM     23  C   UNL     1       1.152   1.789   0.001  1.00  0.00     0.021 A 
BRANCH  22  24
ATOM     24  C   UNL     1       2.192   4.154   0.003  1.00  0.00    -0.008 A 
ATOM     25  C   UNL     1       1.915   5.523   0.013  1.00  0.00     0.011 A 
ATOM     26  C   UNL     1       3.518   3.715  -0.007  1.00  0.00     0.011 A 
ATOM     27  C   UNL     1       2.952   6.433   0.007  1.00  0.00     0.016 A 
ATOM     28  C   UNL     1       4.545   4.636  -0.019  1.00  0.00     0.016 A 
ATOM     29  C   UNL     1       4.264   5.991  -0.009  1.00  0.00     0.018 A 
ATOM     30  Br  UNL     1       5.679   7.246  -0.016  1.00  0.00    -0.051 Br
ENDBRANCH  22  24
ENDBRANCH  18  19
ENDBRANCH   1  17
TORSDOF 8
