REMARK SMILES OC1=N[C@@H](c2ccc(-c3cccc(C(F)(F)F)c3)o2)Nc2sc3c(c21)CC[N@@H+](Cc1ccccc1)C3
REMARK SMILES IDX 27 1 26 2 24 3 23 4 22 5 21 6 25 7 2 8 3 9 4 10 20 11 36 12
REMARK SMILES IDX 28 13 29 16 30 17 33 18 34 19 32 20 35 21 31 22 1 23 5 25
REMARK SMILES IDX 19 26 6 27 8 28 7 29 9 30 18 31 10 32 13 33 11 34 12 35
REMARK SMILES IDX 14 36 15 37 16 38 17 39
REMARK H PARENT 20 14 28 15 1 24
REMARK Flexibility Score: inf
ROOT
ATOM      1  C   UNL     1       1.376   5.527   1.449  1.00  0.00     0.267 C 
ATOM      2  C   UNL     1       1.010   6.066   2.835  1.00  0.00     0.099 C 
ATOM      3  C   UNL     1       1.742   5.231   3.879  1.00  0.00    -0.008 A 
ATOM      4  C   UNL     1       2.249   4.020   3.542  1.00  0.00     0.065 A 
ATOM      5  S   UNL     1       3.000   3.412   5.028  1.00  0.00    -0.116 S 
ATOM      6  C   UNL     1       2.646   4.728   6.063  1.00  0.00     0.104 A 
ATOM      7  C   UNL     1       1.950   5.638   5.255  1.00  0.00     0.075 A 
ATOM      8  C   UNL     1       1.514   6.910   5.888  1.00  0.00     0.219 C 
ATOM      9  N   UNL     1       1.584   6.995   7.189  1.00  0.00    -0.218 NA
ATOM     10  C   UNL     1       1.997   5.911   8.070  1.00  0.00     0.269 C 
ATOM     11  N   UNL     1       2.909   4.974   7.388  1.00  0.00    -0.348 N 
ATOM     12  C   UNL     1       2.172   3.366   2.199  1.00  0.00     0.310 C 
ATOM     13  N   UNL     1       1.133   4.071   1.409  1.00  0.00    -0.326 N 
ATOM     14  H   UNL     1       3.698   4.529   7.878  1.00  0.00     0.164 HD
ATOM     15  H   UNL     1       0.209   3.873   1.818  1.00  0.00     0.348 HD
ENDROOT
BRANCH  13  16
ATOM     16  C   UNL     1       1.151   3.592   0.010  1.00  0.00     0.299 C 
BRANCH  16  17
ATOM     17  C   UNL     1       1.171   2.086   0.002  1.00  0.00     0.006 A 
ATOM     18  C   UNL     1       1.208  -0.679  -0.014  1.00  0.00     0.000 A 
ATOM     19  C   UNL     1       2.396   0.029  -0.021  1.00  0.00     0.001 A 
ATOM     20  C   UNL     1       0.002  -0.004   0.002  1.00  0.00     0.001 A 
ATOM     21  C   UNL     1       2.377   1.411  -0.014  1.00  0.00     0.009 A 
ATOM     22  C   UNL     1      -0.017   1.378   0.010  1.00  0.00     0.009 A 
ENDBRANCH  16  17
ENDBRANCH  13  16
BRANCH   8  23
ATOM     23  O   UNL     1       1.061   7.944   5.141  1.00  0.00    -0.493 OA
ATOM     24  H   UNL     1       0.317   7.556   4.616  1.00  0.00     0.295 HD
ENDBRANCH   8  23
BRANCH  10  25
ATOM     25  C   UNL     1       0.775   5.160   8.533  1.00  0.00     0.149 A 
ATOM     26  O   UNL     1       0.738   3.864   8.881  1.00  0.00    -0.457 OA
ATOM     27  C   UNL     1      -0.463   5.677   8.661  1.00  0.00     0.051 A 
ATOM     28  C   UNL     1      -0.516   3.533   9.244  1.00  0.00     0.134 A 
ATOM     29  C   UNL     1      -1.299   4.638   9.117  1.00  0.00     0.051 A 
BRANCH  28  30
ATOM     30  C   UNL     1      -0.966   2.200   9.696  1.00  0.00     0.018 A 
ATOM     31  C   UNL     1      -0.057   1.144   9.777  1.00  0.00     0.025 A 
ATOM     32  C   UNL     1      -2.303   1.990  10.039  1.00  0.00     0.012 A 
ATOM     33  C   UNL     1      -0.481  -0.097  10.206  1.00  0.00     0.056 A 
ATOM     34  C   UNL     1      -2.715   0.743  10.460  1.00  0.00     0.001 A 
ATOM     35  C   UNL     1      -1.807  -0.298  10.544  1.00  0.00     0.013 A 
BRANCH  33  36
ATOM     36  C   UNL     1       0.500  -1.236  10.300  1.00  0.00     0.416 C 
ATOM     37  F   UNL     1      -0.160  -2.385  10.748  1.00  0.00    -0.166 F 
ATOM     38  F   UNL     1       1.054  -1.479   9.038  1.00  0.00    -0.166 F 
ATOM     39  F   UNL     1       1.518  -0.902  11.200  1.00  0.00    -0.166 F 
ENDBRANCH  33  36
ENDBRANCH  28  30
ENDBRANCH  10  25
TORSDOF 6
