REMARK SMILES Nc1nc(COC(=O)CCc2nc(-c3cccs3)no2)nc2sc3c(c12)CCCCC3
REMARK SMILES IDX 6 1 7 2 8 3 9 4 10 5 11 6 13 7 19 8 12 9 20 10 14 11 16 12
REMARK SMILES IDX 17 13 15 14 18 15 5 16 4 17 21 18 3 19 22 20 2 21 26 22
REMARK SMILES IDX 23 23 25 24 24 25 1 26 27 29 28 30 29 31 31 33 30 34
REMARK H PARENT 1 27 1 28
REMARK Flexibility Score: 90.00
ROOT
ATOM      1  O   UNL     1      -0.757   1.724   3.670  1.00  0.00    -0.457 OA
ENDROOT
BRANCH   1   2
ATOM      2  C   UNL     1      -0.424   1.514   2.387  1.00  0.00     0.306 C 
ATOM      3  O   UNL     1       0.511   0.800   2.114  1.00  0.00    -0.252 OA
BRANCH   2   4
ATOM      4  C   UNL     1      -1.218   2.169   1.286  1.00  0.00     0.132 C 
BRANCH   4   5
ATOM      5  C   UNL     1      -0.635   1.768  -0.071  1.00  0.00     0.112 C 
BRANCH   5   6
ATOM      6  C   UNL     1      -1.428   2.424  -1.172  1.00  0.00     0.227 A 
ATOM      7  C   UNL     1      -2.153   3.764  -2.648  1.00  0.00     0.212 A 
ATOM      8  N   UNL     1      -2.908   2.693  -2.624  1.00  0.00    -0.056 NA
ATOM      9  N   UNL     1      -1.192   3.594  -1.709  1.00  0.00    -0.190 NA
ATOM     10  O   UNL     1      -2.501   1.916  -1.787  1.00  0.00    -0.339 OA
BRANCH   7  11
ATOM     11  C   UNL     1      -2.318   4.936  -3.532  1.00  0.00     0.075 A 
ATOM     12  C   UNL     1      -3.220   6.343  -5.203  1.00  0.00     0.012 A 
ATOM     13  C   UNL     1      -2.242   7.244  -4.926  1.00  0.00     0.065 A 
ATOM     14  C   UNL     1      -3.262   5.160  -4.500  1.00  0.00     0.024 A 
ATOM     15  S   UNL     1      -1.337   6.424  -3.623  1.00  0.00    -0.140 S 
ENDBRANCH   7  11
ENDBRANCH   5   6
ENDBRANCH   4   5
ENDBRANCH   2   4
ENDBRANCH   1   2
BRANCH   1  16
ATOM     16  C   UNL     1       0.051   1.061   4.678  1.00  0.00     0.310 C 
BRANCH  16  17
ATOM     17  C   UNL     1      -0.467   1.411   6.048  1.00  0.00     0.169 A 
ATOM     18  N   UNL     1       0.019   2.468   6.671  1.00  0.00    -0.218 NA
ATOM     19  N   UNL     1      -1.395   0.651   6.602  1.00  0.00    -0.212 NA
ATOM     20  C   UNL     1      -0.425   2.796   7.869  1.00  0.00     0.129 A 
ATOM     21  C   UNL     1      -1.891   0.905   7.802  1.00  0.00     0.136 A 
ATOM     22  C   UNL     1      -1.412   2.035   8.523  1.00  0.00     0.057 A 
ATOM     23  S   UNL     1      -0.072   4.091   9.027  1.00  0.00    -0.120 S 
ATOM     24  C   UNL     1      -1.810   2.504   9.855  1.00  0.00    -0.021 A 
ATOM     25  C   UNL     1      -1.202   3.617  10.311  1.00  0.00     0.011 A 
BRANCH  21  26
ATOM     26  N   UNL     1      -2.861   0.084   8.349  1.00  0.00    -0.383 N 
ATOM     27  H   UNL     1      -3.198  -0.731   7.816  1.00  0.00     0.158 HD
ATOM     28  H   UNL     1      -3.244   0.286   9.283  1.00  0.00     0.158 HD
ENDBRANCH  21  26
BRANCH  24  29
ATOM     29  C   UNL     1      -2.851   1.750  10.676  1.00  0.00     0.037 C 
BRANCH  29  30
ATOM     30  C   UNL     1      -3.540   2.700  11.648  1.00  0.00     0.005 C 
BRANCH  30  31
ATOM     31  C   UNL     1      -2.786   2.748  12.976  1.00  0.00     0.001 CG0
ATOM     32  G   UNL     1      -1.377   3.290  12.756  1.00  0.00     0.000 G0
ENDBRANCH  30  31
ENDBRANCH  29  30
ENDBRANCH  24  29
BRANCH  25  33
ATOM     33  C   UNL     1      -1.426   4.316  11.616  1.00  0.00     0.047 C 
BRANCH  33  34
ATOM     34  C   UNL     1      -1.377   3.290  12.756  1.00  0.00     0.006 CG0
ATOM     35  G   UNL     1      -2.786   2.748  12.976  1.00  0.00     0.000 G0
ENDBRANCH  33  34
ENDBRANCH  25  33
ENDBRANCH  16  17
ENDBRANCH   1  16
TORSDOF 8
