REMARK SMILES Cc1nn(-c2ccccc2)c(Oc2ccc(Br)cc2)c1C[NH2+][C@H]1CC[C@@H](O)CC1
REMARK SMILES IDX 21 1 20 2 1 3 2 4 3 5 4 6 11 7 5 8 10 9 6 10 9 11 7 12 8 13
REMARK SMILES IDX 12 14 13 15 19 16 14 17 18 18 15 19 16 20 17 21 22 22 23 25
REMARK SMILES IDX 24 26 29 27 25 28 28 29 26 30 27 31
REMARK H PARENT 22 23 22 24 27 32
REMARK Flexibility Score: inf
ROOT
ATOM      1  C   UNL     1      -0.568   1.074  -3.375  1.00  0.00     0.305 C 
ENDROOT
BRANCH   1   2
ATOM      2  C   UNL     1      -0.044   0.566  -4.694  1.00  0.00     0.092 A 
ATOM      3  C   UNL     1      -0.423  -1.958  -4.275  1.00  0.00     0.069 C 
ATOM      4  C   UNL     1       0.020  -0.772  -5.093  1.00  0.00     0.073 A 
ATOM      5  N   UNL     1       0.531  -0.821  -6.297  1.00  0.00    -0.169 NA
ATOM      6  N   UNL     1       0.812   0.487  -6.711  1.00  0.00    -0.200 N 
ATOM      7  C   UNL     1       0.443   1.329  -5.708  1.00  0.00     0.231 A 
BRANCH   6   8
ATOM      8  C   UNL     1       1.367   0.862  -7.942  1.00  0.00     0.069 A 
ATOM      9  C   UNL     1       2.407   0.123  -8.490  1.00  0.00     0.028 A 
ATOM     10  C   UNL     1       0.875   1.970  -8.619  1.00  0.00     0.028 A 
ATOM     11  C   UNL     1       2.952   0.495  -9.704  1.00  0.00     0.002 A 
ATOM     12  C   UNL     1       1.427   2.340  -9.829  1.00  0.00     0.002 A 
ATOM     13  C   UNL     1       2.463   1.602 -10.373  1.00  0.00     0.000 A 
ENDBRANCH   6   8
BRANCH   7  14
ATOM     14  O   UNL     1       0.547   2.682  -5.717  1.00  0.00    -0.438 OA
BRANCH  14  15
ATOM     15  C   UNL     1       1.727   3.234  -5.332  1.00  0.00     0.129 A 
ATOM     16  C   UNL     1       1.846   4.612  -5.220  1.00  0.00     0.048 A 
ATOM     17  C   UNL     1       2.814   2.421  -5.045  1.00  0.00     0.048 A 
ATOM     18  C   UNL     1       3.046   5.171  -4.828  1.00  0.00     0.019 A 
ATOM     19  C   UNL     1       4.014   2.985  -4.659  1.00  0.00     0.019 A 
ATOM     20  C   UNL     1       4.130   4.359  -4.547  1.00  0.00     0.018 A 
ATOM     21  Br  UNL     1       5.773   5.127  -4.011  1.00  0.00    -0.051 Br
ENDBRANCH  14  15
ENDBRANCH   7  14
ENDBRANCH   1   2
BRANCH   1  22
ATOM     22  N   UNL     1       0.542   1.136  -2.406  1.00  0.00    -0.340 N 
ATOM     23  H   UNL     1       0.943   0.195  -2.285  1.00  0.00     0.346 HD
ATOM     24  H   UNL     1       1.272   1.770  -2.761  1.00  0.00     0.346 HD
BRANCH  22  25
ATOM     25  C   UNL     1       0.058   1.631  -1.103  1.00  0.00     0.182 C 
ATOM     26  C   UNL     1       0.058   3.161  -1.106  1.00  0.00     0.067 C 
ATOM     27  C   UNL     1       0.985   1.123   0.003  1.00  0.00     0.067 C 
ATOM     28  C   UNL     1      -0.436   3.673   0.248  1.00  0.00     0.038 C 
ATOM     29  C   UNL     1       0.491   1.635   1.357  1.00  0.00     0.038 C 
ATOM     30  C   UNL     1       0.491   3.165   1.355  1.00  0.00     0.114 C 
BRANCH  30  31
ATOM     31  O   UNL     1       1.818   3.641   1.120  1.00  0.00    -0.393 OA
ATOM     32  H   UNL     1       2.138   3.310   0.244  1.00  0.00     0.210 HD
ENDBRANCH  30  31
ENDBRANCH  22  25
ENDBRANCH   1  22
TORSDOF 7
