REMARK SMILES O=C(/C=C/c1ccccc1)NC(=S)NNC(=O)[C-](Oc1ccc(Cl)cc1)Oc1ccc(Cl)cc1
REMARK SMILES IDX 14 1 12 3 13 4 11 5 2 6 1 7 3 9 4 10 5 11 8 12 9 13 7 14
REMARK SMILES IDX 10 15 6 16 15 17 16 18 17 20 18 21 19 22 20 23 26 24 21 25
REMARK SMILES IDX 25 26 22 27 23 28 24 29 27 30 28 31 34 32 29 33 33 34 30 35
REMARK SMILES IDX 31 36 32 37
REMARK H PARENT 14 2 11 8 15 19
REMARK Flexibility Score: inf
ROOT
ATOM      1  N   UNL     1       3.654   1.968  -0.917  1.00  0.00    -0.276 N 
ATOM      2  H   UNL     1       4.566   1.492  -0.849  1.00  0.00     0.190 HD
ENDROOT
BRANCH   1   3
ATOM      3  C   UNL     1       2.557   1.273  -1.276  1.00  0.00     0.192 C 
ATOM      4  S   UNL     1       2.677  -0.400  -1.619  1.00  0.00    -0.039 S 
BRANCH   3   5
ATOM      5  N   UNL     1       1.364   1.895  -1.364  1.00  0.00    -0.298 N 
ATOM      6  C   UNL     1       0.267   1.200  -1.723  1.00  0.00     0.250 C 
ATOM      7  O   UNL     1       0.352   0.011  -1.967  1.00  0.00    -0.270 OA
ATOM      8  H   UNL     1       1.292   2.902  -1.158  1.00  0.00     0.172 HD
BRANCH   6   9
ATOM      9  C   UNL     1      -1.026   1.877  -1.825  1.00  0.00     0.072 C 
ATOM     10  C   UNL     1      -2.124   1.183  -2.190  1.00  0.00     0.014 C 
BRANCH  10  11
ATOM     11  C   UNL     1      -3.425   1.864  -2.293  1.00  0.00    -0.025 A 
ATOM     12  C   UNL     1      -5.873   3.145  -2.485  1.00  0.00     0.000 A 
ATOM     13  C   UNL     1      -4.750   3.861  -2.111  1.00  0.00     0.001 A 
ATOM     14  C   UNL     1      -5.780   1.792  -2.764  1.00  0.00     0.001 A 
ATOM     15  C   UNL     1      -3.528   3.229  -2.008  1.00  0.00     0.008 A 
ATOM     16  C   UNL     1      -4.565   1.147  -2.670  1.00  0.00     0.008 A 
ENDBRANCH  10  11
ENDBRANCH   6   9
ENDBRANCH   3   5
ENDBRANCH   1   3
BRANCH   1  17
ATOM     17  N   UNL     1       3.556   3.337  -0.636  1.00  0.00    -0.288 N 
ATOM     18  C   UNL     1       4.654   4.032  -0.277  1.00  0.00     0.176 C 
ATOM     19  H   UNL     1       2.645   3.812  -0.704  1.00  0.00     0.188 HD
ATOM     20  O   UNL     1       5.727   3.472  -0.197  1.00  0.00    -0.302 OA
BRANCH  18  21
ATOM     21  C   UNL     1       4.548   5.505   0.025  1.00  0.00     0.041 C 
BRANCH  21  22
ATOM     22  O   UNL     1       3.292   5.773   0.651  1.00  0.00    -0.594 OA
BRANCH  22  23
ATOM     23  C   UNL     1       3.010   5.085   1.789  1.00  0.00     0.092 A 
ATOM     24  C   UNL     1       1.764   5.209   2.385  1.00  0.00     0.045 A 
ATOM     25  C   UNL     1       3.967   4.254   2.353  1.00  0.00     0.045 A 
ATOM     26  C   UNL     1       1.479   4.509   3.541  1.00  0.00     0.024 A 
ATOM     27  C   UNL     1       3.680   3.559   3.512  1.00  0.00     0.024 A 
ATOM     28  C   UNL     1       2.436   3.684   4.105  1.00  0.00     0.041 A 
ATOM     29  Cl  UNL     1       2.076   2.806   5.558  1.00  0.00    -0.084 Cl
ENDBRANCH  22  23
ENDBRANCH  21  22
BRANCH  21  30
ATOM     30  O   UNL     1       5.609   5.888   0.901  1.00  0.00    -0.594 OA
BRANCH  30  31
ATOM     31  C   UNL     1       5.722   7.212   1.191  1.00  0.00     0.092 A 
ATOM     32  C   UNL     1       6.658   7.641   2.121  1.00  0.00     0.045 A 
ATOM     33  C   UNL     1       4.906   8.134   0.554  1.00  0.00     0.045 A 
ATOM     34  C   UNL     1       6.771   8.987   2.414  1.00  0.00     0.024 A 
ATOM     35  C   UNL     1       5.019   9.478   0.853  1.00  0.00     0.024 A 
ATOM     36  C   UNL     1       5.952   9.905   1.781  1.00  0.00     0.041 A 
ATOM     37  Cl  UNL     1       6.096  11.595   2.151  1.00  0.00    -0.084 Cl
ENDBRANCH  30  31
ENDBRANCH  21  30
ENDBRANCH  18  21
ENDBRANCH   1  17
TORSDOF 10
