REMARK SMILES CCOC(=O)c1c(NC(=O)CSc2nnc3n2CCCCC3)sc2c1CC(C)(C)[NH2+]C2(C)C
REMARK SMILES IDX 11 1 9 2 8 3 10 5 7 6 6 7 25 8 23 9 26 10 24 11 27 12 31 13
REMARK SMILES IDX 28 14 29 15 30 16 32 17 33 18 4 21 5 22 3 23 2 24 1 25 12 26
REMARK SMILES IDX 13 27 17 28 14 29 16 30 15 31 18 32 19 33 20 34 22 36 21 37
REMARK H PARENT 8 4 30 19 30 20
REMARK Flexibility Score: 90.00
ROOT
ATOM      1  C   UNL     1      -7.142   1.680  -4.360  1.00  0.00     0.178 C 
ENDROOT
BRANCH   1   2
ATOM      2  C   UNL     1      -6.033   2.108  -3.434  1.00  0.00     0.235 C 
ATOM      3  N   UNL     1      -5.588   1.267  -2.480  1.00  0.00    -0.316 N 
ATOM      4  H   UNL     1      -6.006   0.330  -2.384  1.00  0.00     0.170 HD
ATOM      5  O   UNL     1      -5.540   3.211  -3.548  1.00  0.00    -0.274 OA
BRANCH   3   6
ATOM      6  C   UNL     1      -4.568   1.661  -1.629  1.00  0.00     0.110 A 
ATOM      7  C   UNL     1      -3.981   0.940  -0.594  1.00  0.00     0.098 A 
ATOM      8  C   UNL     1      -2.924   1.590   0.151  1.00  0.00    -0.005 A 
ATOM      9  S   UNL     1      -3.716   3.170  -1.594  1.00  0.00    -0.115 S 
ATOM     10  C   UNL     1      -2.143   0.986   1.311  1.00  0.00     0.105 C 
ATOM     11  C   UNL     1      -2.620   2.849  -0.243  1.00  0.00     0.071 A 
ATOM     12  C   UNL     1      -0.729   1.580   1.268  1.00  0.00     0.095 C 
ATOM     13  C   UNL     1      -1.583   3.741   0.356  1.00  0.00     0.126 C 
ATOM     14  C   UNL     1      -0.013   1.086   0.008  1.00  0.00     0.079 C 
ATOM     15  C   UNL     1       0.043   1.051   2.490  1.00  0.00     0.079 C 
ATOM     16  N   UNL     1      -0.718   3.062   1.363  1.00  0.00    -0.333 N 
ATOM     17  C   UNL     1      -2.297   4.904   1.070  1.00  0.00     0.085 C 
ATOM     18  C   UNL     1      -0.715   4.334  -0.763  1.00  0.00     0.085 C 
ATOM     19  H   UNL     1       0.251   3.393   1.246  1.00  0.00     0.347 HD
ATOM     20  H   UNL     1      -1.027   3.336   2.306  1.00  0.00     0.347 HD
BRANCH   7  21
ATOM     21  C   UNL     1      -4.425  -0.420  -0.281  1.00  0.00     0.341 C 
ATOM     22  O   UNL     1      -5.321  -0.598   0.522  1.00  0.00    -0.246 OA
BRANCH  21  23
ATOM     23  O   UNL     1      -3.839  -1.476  -0.882  1.00  0.00    -0.462 OA
BRANCH  23  24
ATOM     24  C   UNL     1      -4.330  -2.795  -0.524  1.00  0.00     0.230 C 
ATOM     25  C   UNL     1      -3.551  -3.857  -1.302  1.00  0.00     0.049 C 
ENDBRANCH  23  24
ENDBRANCH  21  23
ENDBRANCH   7  21
ENDBRANCH   3   6
ENDBRANCH   1   2
BRANCH   1  26
ATOM     26  S   UNL     1      -7.511   3.019  -5.520  1.00  0.00    -0.076 SA
BRANCH  26  27
ATOM     27  C   UNL     1      -8.803   2.268  -6.454  1.00  0.00     0.191 A 
ATOM     28  N   UNL     1      -9.486   2.827  -7.489  1.00  0.00    -0.306 N 
ATOM     29  N   UNL     1      -9.296   1.061  -6.280  1.00  0.00    -0.123 NA
ATOM     30  C   UNL     1     -10.392   1.888  -7.894  1.00  0.00     0.133 A 
ATOM     31  N   UNL     1     -10.232   0.844  -7.136  1.00  0.00    -0.134 NA
BRANCH  28  32
ATOM     32  C   UNL     1      -9.291   4.155  -8.071  1.00  0.00     0.126 C 
BRANCH  32  33
ATOM     33  C   UNL     1     -10.610   4.640  -8.680  1.00  0.00     0.022 C 
BRANCH  33  34
ATOM     34  C   UNL     1     -10.705   4.184 -10.135  1.00  0.00     0.002 CG0
ATOM     35  G   UNL     1     -10.693   2.661 -10.223  1.00  0.00     0.000 G0
ENDBRANCH  33  34
ENDBRANCH  32  33
ENDBRANCH  28  32
BRANCH  30  36
ATOM     36  C   UNL     1     -11.394   2.065  -9.005  1.00  0.00     0.077 C 
BRANCH  36  37
ATOM     37  C   UNL     1     -10.693   2.661 -10.223  1.00  0.00     0.008 CG0
ATOM     38  G   UNL     1     -10.705   4.184 -10.135  1.00  0.00     0.000 G0
ENDBRANCH  36  37
ENDBRANCH  30  36
ENDBRANCH  26  27
ENDBRANCH   1  26
TORSDOF 7
