REMARK SMILES Oc1cccc([C@H]2c3c(/C=C/c4ccccc4)nnc(O)c3Nc3nnnn32)c1
REMARK SMILES IDX 9 1 8 2 22 3 20 4 19 5 18 6 23 7 24 8 25 9 26 10 27 11 28 12
REMARK SMILES IDX 7 13 10 15 11 16 12 17 15 18 16 19 14 20 17 21 13 22 6 23
REMARK SMILES IDX 29 24 5 25 2 26 4 27 3 28 1 29 21 31
REMARK H PARENT 23 14 1 30 21 32
REMARK Flexibility Score: inf
ROOT
ATOM      1  C   UNL     1      -0.198   5.738  -2.453  1.00  0.00     0.094 A 
ATOM      2  C   UNL     1      -0.801   5.845  -1.192  1.00  0.00     0.038 A 
ATOM      3  C   UNL     1      -2.062   6.410  -1.126  1.00  0.00     0.114 A 
ATOM      4  C   UNL     1      -2.663   6.838  -2.317  1.00  0.00     0.255 A 
ATOM      5  N   UNL     1      -2.017   6.696  -3.462  1.00  0.00    -0.110 NA
ATOM      6  N   UNL     1      -0.846   6.175  -3.529  1.00  0.00    -0.147 NA
ATOM      7  N   UNL     1      -2.733   6.562   0.092  1.00  0.00    -0.318 N 
ATOM      8  C   UNL     1      -1.992   6.374   1.249  1.00  0.00     0.248 A 
ATOM      9  N   UNL     1      -2.275   6.657   2.490  1.00  0.00    -0.090 NA
ATOM     10  N   UNL     1      -1.296   6.322   3.258  1.00  0.00    -0.022 NA
ATOM     11  N   UNL     1      -0.334   5.806   2.563  1.00  0.00    -0.042 NA
ATOM     12  N   UNL     1      -0.756   5.817   1.232  1.00  0.00    -0.199 N 
ATOM     13  C   UNL     1      -0.076   5.351   0.030  1.00  0.00     0.178 C 
ATOM     14  H   UNL     1      -3.734   6.802   0.128  1.00  0.00     0.170 HD
ENDROOT
BRANCH   1  15
ATOM     15  C   UNL     1       1.145   5.146  -2.585  1.00  0.00     0.031 C 
ATOM     16  C   UNL     1       1.719   5.046  -3.795  1.00  0.00     0.010 C 
BRANCH  16  17
ATOM     17  C   UNL     1       3.062   4.455  -3.927  1.00  0.00    -0.026 A 
ATOM     18  C   UNL     1       5.586   3.342  -4.175  1.00  0.00     0.000 A 
ATOM     19  C   UNL     1       4.998   3.443  -2.927  1.00  0.00     0.001 A 
ATOM     20  C   UNL     1       4.919   3.794  -5.300  1.00  0.00     0.001 A 
ATOM     21  C   UNL     1       3.744   4.001  -2.795  1.00  0.00     0.008 A 
ATOM     22  C   UNL     1       3.662   4.349  -5.185  1.00  0.00     0.008 A 
ENDBRANCH  16  17
ENDBRANCH   1  15
BRANCH  13  23
ATOM     23  C   UNL     1      -0.051   3.844   0.022  1.00  0.00    -0.015 A 
ATOM     24  C   UNL     1       1.157   3.174   0.008  1.00  0.00     0.052 A 
ATOM     25  C   UNL     1      -1.237   3.133   0.030  1.00  0.00     0.006 A 
ATOM     26  C   UNL     1       1.179   1.786   0.000  1.00  0.00     0.115 A 
ATOM     27  C   UNL     1      -1.218   1.751   0.017  1.00  0.00     0.004 A 
ATOM     28  C   UNL     1      -0.013   1.076   0.008  1.00  0.00     0.046 A 
BRANCH  26  29
ATOM     29  O   UNL     1       2.366   1.125  -0.014  1.00  0.00    -0.508 OA
ATOM     30  H   UNL     1       2.322   0.541  -0.812  1.00  0.00     0.293 HD
ENDBRANCH  26  29
ENDBRANCH  13  23
BRANCH   4  31
ATOM     31  O   UNL     1      -3.901   7.396  -2.296  1.00  0.00    -0.491 OA
ATOM     32  H   UNL     1      -3.824   8.159  -1.670  1.00  0.00     0.295 HD
ENDBRANCH   4  31
TORSDOF 5
