REMARK SMILES Cc1ccc(Cl)c(NC(=O)[C@H](C)OC(=O)c2cc3ccccc3cc2NC(=O)C2CC2)c1Cl
REMARK SMILES IDX 14 1 15 2 13 3 11 4 12 5 9 6 8 7 10 9 7 10 1 11 2 12 32 13
REMARK SMILES IDX 3 14 33 15 4 16 5 17 6 18 16 19 25 20 17 21 24 22 18 23
REMARK SMILES IDX 23 24 19 25 22 26 20 27 21 28 26 29 27 30 28 32 29 33 31 34
REMARK SMILES IDX 30 35
REMARK H PARENT 8 8 26 31
REMARK Flexibility Score: inf
ROOT
ATOM      1  C   UNL     1      -1.130  -0.614  -1.893  1.00  0.00     0.341 C 
ATOM      2  O   UNL     1      -0.108  -1.269  -1.839  1.00  0.00    -0.246 OA
ENDROOT
BRANCH   1   3
ATOM      3  O   UNL     1      -1.361   0.351  -0.981  1.00  0.00    -0.449 OA
BRANCH   3   4
ATOM      4  C   UNL     1      -0.344   0.553   0.036  1.00  0.00     0.262 C 
ATOM      5  C   UNL     1       0.672   1.585  -0.457  1.00  0.00     0.064 C 
BRANCH   4   6
ATOM      6  C   UNL     1      -0.993   1.052   1.302  1.00  0.00     0.265 C 
ATOM      7  N   UNL     1      -0.255   1.215   2.418  1.00  0.00    -0.320 N 
ATOM      8  H   UNL     1       0.740   0.947   2.421  1.00  0.00     0.170 HD
ATOM      9  O   UNL     1      -2.179   1.307   1.316  1.00  0.00    -0.270 OA
BRANCH   7  10
ATOM     10  C   UNL     1      -0.840   1.749   3.572  1.00  0.00     0.079 A 
ATOM     11  C   UNL     1      -0.820   1.137   7.303  1.00  0.00     0.046 C 
ATOM     12  C   UNL     1      -1.131   1.731   5.954  1.00  0.00    -0.030 A 
ATOM     13  C   UNL     1      -0.552   1.201   4.816  1.00  0.00     0.069 A 
ATOM     14  C   UNL     1      -1.997   2.804   5.855  1.00  0.00     0.006 A 
ATOM     15  Cl  UNL     1       0.534  -0.148   4.941  1.00  0.00    -0.082 Cl
ATOM     16  C   UNL     1      -2.286   3.353   4.619  1.00  0.00     0.023 A 
ATOM     17  C   UNL     1      -1.706   2.831   3.477  1.00  0.00     0.066 A 
ATOM     18  Cl  UNL     1      -2.064   3.524   1.926  1.00  0.00    -0.082 Cl
ENDBRANCH   7  10
ENDBRANCH   4   6
ENDBRANCH   3   4
ENDBRANCH   1   3
BRANCH   1  19
ATOM     19  C   UNL     1      -2.119  -0.876  -2.955  1.00  0.00     0.084 A 
ATOM     20  C   UNL     1      -1.931  -1.965  -3.835  1.00  0.00     0.056 A 
ATOM     21  C   UNL     1      -3.228  -0.056  -3.081  1.00  0.00     0.026 A 
ATOM     22  C   UNL     1      -2.836  -2.223  -4.825  1.00  0.00     0.035 A 
ATOM     23  C   UNL     1      -4.162  -0.306  -4.096  1.00  0.00    -0.017 A 
ATOM     24  C   UNL     1      -3.965  -1.403  -4.976  1.00  0.00    -0.016 A 
ATOM     25  C   UNL     1      -5.297   0.510  -4.256  1.00  0.00     0.009 A 
ATOM     26  C   UNL     1      -4.910  -1.651  -5.987  1.00  0.00     0.009 A 
ATOM     27  C   UNL     1      -6.189   0.238  -5.247  1.00  0.00     0.001 A 
ATOM     28  C   UNL     1      -5.996  -0.839  -6.110  1.00  0.00     0.001 A 
BRANCH  20  29
ATOM     29  N   UNL     1      -0.812  -2.784  -3.692  1.00  0.00    -0.325 N 
ATOM     30  C   UNL     1      -0.331  -3.459  -4.754  1.00  0.00     0.227 C 
ATOM     31  H   UNL     1      -0.354  -2.873  -2.774  1.00  0.00     0.169 HD
ATOM     32  O   UNL     1      -0.809  -3.280  -5.854  1.00  0.00    -0.274 OA
BRANCH  30  33
ATOM     33  C   UNL     1       0.802  -4.437  -4.575  1.00  0.00     0.079 C 
ATOM     34  C   UNL     1       1.304  -5.172  -5.819  1.00  0.00     0.014 C 
ATOM     35  C   UNL     1       2.156  -4.070  -5.186  1.00  0.00     0.014 C 
ENDBRANCH  30  33
ENDBRANCH  20  29
ENDBRANCH   1  19
TORSDOF 7
