REMARK SMILES CN(C)c1ccc([C@@H]2[NH2+]C[C@H](CSc3nc(-c4ccccc4Br)n[nH]3)O2)cc1
REMARK SMILES IDX 12 1 11 2 8 3 26 4 9 5 10 6 7 9 4 10 28 11 5 12 27 13 6 14
REMARK SMILES IDX 2 15 1 16 3 17 13 18 14 19 15 20 25 21 16 22 24 23 17 25
REMARK SMILES IDX 22 26 18 27 21 28 23 29 19 30 20 31
REMARK H PARENT 9 7 9 8 25 24
REMARK Flexibility Score: inf
ROOT
ATOM      1  C   UNL     1      -0.040   1.097  -0.004  1.00  0.00     0.116 C 
ENDROOT
BRANCH   1   2
ATOM      2  C   UNL     1      -0.743   1.584   1.264  1.00  0.00     0.190 C 
ATOM      3  C   UNL     1      -0.863   3.306   2.751  1.00  0.00     0.354 C 
ATOM      4  O   UNL     1      -0.707   3.028   1.343  1.00  0.00    -0.315 OA
ATOM      5  N   UNL     1      -0.058   2.281   3.452  1.00  0.00    -0.315 N 
ATOM      6  C   UNL     1       0.028   1.128   2.522  1.00  0.00     0.296 C 
ATOM      7  H   UNL     1      -0.531   1.995   4.321  1.00  0.00     0.348 HD
ATOM      8  H   UNL     1       0.885   2.646   3.647  1.00  0.00     0.348 HD
BRANCH   3   9
ATOM      9  C   UNL     1      -0.344   4.685   3.070  1.00  0.00     0.038 A 
ATOM     10  C   UNL     1       0.608   7.216   3.655  1.00  0.00     0.036 A 
ATOM     11  C   UNL     1       1.466   6.124   3.690  1.00  0.00     0.026 A 
ATOM     12  C   UNL     1      -0.730   7.034   3.326  1.00  0.00     0.026 A 
ATOM     13  C   UNL     1       0.986   4.862   3.402  1.00  0.00     0.015 A 
ATOM     14  C   UNL     1      -1.202   5.770   3.034  1.00  0.00     0.015 A 
BRANCH  10  15
ATOM     15  N   UNL     1       1.088   8.494   3.951  1.00  0.00    -0.378 N 
ATOM     16  C   UNL     1       0.215   9.659   3.793  1.00  0.00     0.143 C 
ATOM     17  C   UNL     1       2.465   8.668   4.419  1.00  0.00     0.143 C 
ENDBRANCH  10  15
ENDBRANCH   3   9
ENDBRANCH   1   2
BRANCH   1  18
ATOM     18  S   UNL     1      -0.933   1.699  -1.459  1.00  0.00    -0.084 SA
BRANCH  18  19
ATOM     19  C   UNL     1       0.064   1.010  -2.737  1.00  0.00     0.184 A 
ATOM     20  N   UNL     1      -0.138   1.141  -4.082  1.00  0.00    -0.201 NA
ATOM     21  N   UNL     1       1.141   0.275  -2.575  1.00  0.00    -0.254 N 
ATOM     22  C   UNL     1       0.883   0.440  -4.681  1.00  0.00     0.183 A 
ATOM     23  N   UNL     1       1.618  -0.068  -3.719  1.00  0.00    -0.153 NA
ATOM     24  H   UNL     1       1.545   0.012  -1.665  1.00  0.00     0.192 HD
BRANCH  22  25
ATOM     25  C   UNL     1       1.110   0.287  -6.133  1.00  0.00     0.035 A 
ATOM     26  C   UNL     1       2.201  -0.450  -6.599  1.00  0.00     0.029 A 
ATOM     27  C   UNL     1       0.232   0.874  -7.046  1.00  0.00     0.013 A 
ATOM     28  C   UNL     1       2.407  -0.589  -7.957  1.00  0.00     0.016 A 
ATOM     29  Br  UNL     1       3.393  -1.256  -5.373  1.00  0.00    -0.050 Br
ATOM     30  C   UNL     1       0.452   0.731  -8.400  1.00  0.00     0.001 A 
ATOM     31  C   UNL     1       1.535  -0.000  -8.855  1.00  0.00     0.001 A 
ENDBRANCH  22  25
ENDBRANCH  18  19
ENDBRANCH   1  18
TORSDOF 6
