REMARK SMILES CCNC(=O)N[C@H]1CC[C@H](Nc2ncc(-c3ccccc3)c3nc(C(F)(F)F)ccc23)CC1
REMARK SMILES IDX 7 1 33 2 32 3 10 4 9 5 8 6 6 7 3 8 4 9 5 11 2 13 1 14 11 15
REMARK SMILES IDX 12 17 13 18 31 19 14 20 22 21 30 22 15 23 23 24 29 25 24 26
REMARK SMILES IDX 16 27 21 28 17 29 20 30 18 31 19 32 25 33 26 34 27 35 28 36
REMARK H PARENT 3 10 6 12 11 16
REMARK Flexibility Score: inf
ROOT
ATOM      1  C   UNL     1       3.179   8.493   0.848  1.00  0.00     0.084 C 
ATOM      2  C   UNL     1       2.654   8.382  -0.586  1.00  0.00     0.027 C 
ATOM      3  C   UNL     1       1.291   7.687  -0.577  1.00  0.00     0.027 C 
ATOM      4  C   UNL     1       1.436   6.287   0.023  1.00  0.00     0.080 C 
ATOM      5  C   UNL     1       1.961   6.398   1.456  1.00  0.00     0.027 C 
ATOM      6  C   UNL     1       3.324   7.094   1.448  1.00  0.00     0.027 C 
ENDROOT
BRANCH   1   7
ATOM      7  N   UNL     1       4.484   9.159   0.840  1.00  0.00    -0.335 N 
ATOM      8  N   UNL     1       6.113  10.427   1.929  1.00  0.00    -0.338 N 
ATOM      9  C   UNL     1       4.912   9.815   1.936  1.00  0.00     0.314 C 
ATOM     10  H   UNL     1       6.703  10.394   1.085  1.00  0.00     0.165 HD
ATOM     11  O   UNL     1       4.216   9.854   2.932  1.00  0.00    -0.249 OA
ATOM     12  H   UNL     1       5.073   9.126  -0.004  1.00  0.00     0.165 HD
BRANCH   8  13
ATOM     13  C   UNL     1       6.579  11.139   3.121  1.00  0.00     0.114 C 
ATOM     14  C   UNL     1       7.960  11.739   2.850  1.00  0.00     0.027 C 
ENDBRANCH   8  13
ENDBRANCH   1   7
BRANCH   4  15
ATOM     15  N   UNL     1       0.131   5.621   0.031  1.00  0.00    -0.367 N 
ATOM     16  H   UNL     1      -0.733   6.182   0.042  1.00  0.00     0.162 HD
BRANCH  15  17
ATOM     17  C   UNL     1       0.060   4.240   0.024  1.00  0.00     0.135 A 
ATOM     18  N   UNL     1       1.168   3.523   0.010  1.00  0.00    -0.238 NA
ATOM     19  C   UNL     1      -1.199   3.600   0.032  1.00  0.00     0.043 A 
ATOM     20  C   UNL     1       1.162   2.199   0.003  1.00  0.00     0.124 A 
ATOM     21  C   UNL     1      -1.248   2.184   0.020  1.00  0.00     0.084 A 
ATOM     22  C   UNL     1      -2.402   4.322   0.046  1.00  0.00     0.016 A 
ATOM     23  C   UNL     1      -0.018   1.477   0.010  1.00  0.00     0.027 A 
ATOM     24  N   UNL     1      -2.421   1.556   0.032  1.00  0.00    -0.242 NA
ATOM     25  C   UNL     1      -3.575   3.618   0.053  1.00  0.00     0.034 A 
ATOM     26  C   UNL     1      -3.551   2.227   0.045  1.00  0.00     0.145 A 
BRANCH  23  27
ATOM     27  C   UNL     1       0.002  -0.004   0.002  1.00  0.00    -0.015 A 
ATOM     28  C   UNL     1       0.778  -0.689  -0.933  1.00  0.00     0.009 A 
ATOM     29  C   UNL     1      -0.750  -0.720   0.933  1.00  0.00     0.009 A 
ATOM     30  C   UNL     1       0.792  -2.068  -0.936  1.00  0.00     0.001 A 
ATOM     31  C   UNL     1      -0.732  -2.099   0.917  1.00  0.00     0.001 A 
ATOM     32  C   UNL     1       0.040  -2.773  -0.013  1.00  0.00     0.000 A 
ENDBRANCH  23  27
BRANCH  26  33
ATOM     33  C   UNL     1      -4.854   1.470   0.053  1.00  0.00     0.433 C 
ATOM     34  F   UNL     1      -5.269   1.243  -1.263  1.00  0.00    -0.165 F 
ATOM     35  F   UNL     1      -4.678   0.244   0.705  1.00  0.00    -0.165 F 
ATOM     36  F   UNL     1      -5.825   2.220   0.726  1.00  0.00    -0.165 F 
ENDBRANCH  26  33
ENDBRANCH  15  17
ENDBRANCH   4  15
TORSDOF 6
