REMARK SMILES CCc1cc(C(=O)OC)c(NC(=O)CSc2nnc(-c3ccc(Br)o3)n2C(C)C)s1
REMARK SMILES IDX 11 1 12 2 13 3 10 5 3 6 30 7 4 8 5 9 2 10 1 11 6 12 7 13
REMARK SMILES IDX 8 14 9 15 14 16 15 17 16 18 26 19 17 20 19 21 18 22 27 23
REMARK SMILES IDX 28 24 29 25 20 26 25 27 21 28 23 29 22 30 24 31
REMARK H PARENT 11 4
REMARK Flexibility Score: inf
ROOT
ATOM      1  N   UNL     1       0.832   0.497   5.160  1.00  0.00    -0.316 N 
ATOM      2  C   UNL     1       1.179   0.255   6.439  1.00  0.00     0.235 C 
ATOM      3  O   UNL     1       0.515   0.714   7.345  1.00  0.00    -0.274 OA
ATOM      4  H   UNL     1       1.396   0.108   4.391  1.00  0.00     0.170 HD
ENDROOT
BRANCH   1   5
ATOM      5  C   UNL     1      -0.283   1.271   4.879  1.00  0.00     0.110 A 
ATOM      6  C   UNL     1      -2.492   2.794   4.833  1.00  0.00     0.007 A 
ATOM      7  S   UNL     1      -1.374   2.029   5.989  1.00  0.00    -0.122 S 
ATOM      8  C   UNL     1      -1.986   2.445   3.637  1.00  0.00     0.033 A 
ATOM      9  C   UNL     1      -0.796   1.628   3.636  1.00  0.00     0.095 A 
BRANCH   6  10
ATOM     10  C   UNL     1      -3.711   3.630   5.125  1.00  0.00     0.043 C 
ATOM     11  C   UNL     1      -4.939   2.724   5.226  1.00  0.00     0.010 C 
ENDBRANCH   6  10
BRANCH   9  12
ATOM     12  C   UNL     1      -0.164   1.192   2.390  1.00  0.00     0.340 C 
ATOM     13  O   UNL     1       0.839   0.504   2.424  1.00  0.00    -0.246 OA
BRANCH  12  14
ATOM     14  O   UNL     1      -0.692   1.554   1.203  1.00  0.00    -0.465 OA
ATOM     15  C   UNL     1      -0.013   1.086   0.008  1.00  0.00     0.282 C 
ENDBRANCH  12  14
ENDBRANCH   9  12
ENDBRANCH   1   5
BRANCH   2  16
ATOM     16  C   UNL     1       2.392  -0.586   6.745  1.00  0.00     0.178 C 
BRANCH  16  17
ATOM     17  S   UNL     1       2.592  -0.727   8.539  1.00  0.00    -0.076 SA
BRANCH  17  18
ATOM     18  C   UNL     1       4.039  -1.730   8.607  1.00  0.00     0.192 A 
ATOM     19  N   UNL     1       4.668  -2.168   9.739  1.00  0.00    -0.297 N 
ATOM     20  N   UNL     1       4.710  -2.200   7.580  1.00  0.00    -0.123 NA
ATOM     21  C   UNL     1       5.742  -2.912   9.301  1.00  0.00     0.200 A 
ATOM     22  N   UNL     1       5.714  -2.892   7.986  1.00  0.00    -0.126 NA
BRANCH  19  23
ATOM     23  C   UNL     1       4.283  -1.901  11.126  1.00  0.00     0.085 C 
ATOM     24  C   UNL     1       4.299  -0.392  11.379  1.00  0.00     0.031 C 
ATOM     25  C   UNL     1       2.875  -2.445  11.378  1.00  0.00     0.031 C 
ENDBRANCH  19  23
BRANCH  21  26
ATOM     26  C   UNL     1       6.732  -3.600  10.145  1.00  0.00     0.173 A 
ATOM     27  O   UNL     1       6.928  -3.394  11.462  1.00  0.00    -0.446 OA
ATOM     28  C   UNL     1       7.606  -4.560   9.731  1.00  0.00     0.055 A 
ATOM     29  C   UNL     1       7.912  -4.198  11.898  1.00  0.00     0.170 A 
ATOM     30  C   UNL     1       8.362  -4.933  10.859  1.00  0.00     0.059 A 
ATOM     31  Br  UNL     1       8.561  -4.285  13.672  1.00  0.00    -0.008 Br
ENDBRANCH  21  26
ENDBRANCH  17  18
ENDBRANCH  16  17
ENDBRANCH   2  16
TORSDOF 9
