REMARK SMILES CCOC(=O)C1=C(C)OC(N)=C(C#N)[C@H]1c1cc(COc2ccccc2Cl)c(C)cc1C
REMARK SMILES IDX 16 1 17 2 18 3 28 4 30 5 31 6 32 7 29 8 15 9 6 10 7 11 12 12
REMARK SMILES IDX 9 13 8 14 10 15 4 16 5 17 3 18 2 19 1 20 13 21 14 22 11 23
REMARK SMILES IDX 19 26 20 27 21 28 26 29 22 30 25 31 27 32 23 33 24 34
REMARK H PARENT 11 24 11 25
REMARK Flexibility Score: inf
ROOT
ATOM      1  C   UNL     1      -4.285   1.889   1.530  1.00  0.00    -0.031 A 
ATOM      2  C   UNL     1      -3.461   2.286   2.566  1.00  0.00     0.012 A 
ATOM      3  C   UNL     1      -3.957   2.363   3.853  1.00  0.00    -0.008 A 
ATOM      4  C   UNL     1      -5.278   2.043   4.105  1.00  0.00    -0.044 A 
ATOM      5  C   UNL     1      -6.103   1.646   3.070  1.00  0.00     0.007 A 
ATOM      6  C   UNL     1      -5.608   1.575   1.780  1.00  0.00    -0.047 A 
ATOM      7  C   UNL     1      -6.508   1.148   0.650  1.00  0.00     0.044 C 
ATOM      8  C   UNL     1      -5.819   2.126   5.510  1.00  0.00     0.045 C 
ENDROOT
BRANCH   1   9
ATOM      9  C   UNL     1      -3.744   1.806   0.126  1.00  0.00     0.107 C 
ATOM     10  C   UNL     1      -3.379   3.184  -0.353  1.00  0.00     0.088 C 
ATOM     11  C   UNL     1      -2.102   3.583  -0.405  1.00  0.00     0.114 C 
ATOM     12  C   UNL     1      -2.526   0.922   0.111  1.00  0.00     0.102 C 
ATOM     13  O   UNL     1      -1.087   2.786  -0.033  1.00  0.00    -0.445 OA
ATOM     14  C   UNL     1      -1.793   4.974  -0.893  1.00  0.00     0.088 C 
ATOM     15  C   UNL     1      -1.284   1.457   0.029  1.00  0.00     0.205 C 
BRANCH  10  16
ATOM     16  C   UNL     1      -4.404   4.077  -0.754  1.00  0.00     0.338 C 
ATOM     17  O   UNL     1      -4.950   3.931  -1.831  1.00  0.00    -0.246 OA
BRANCH  16  18
ATOM     18  O   UNL     1      -4.774   5.088   0.059  1.00  0.00    -0.463 OA
BRANCH  18  19
ATOM     19  C   UNL     1      -5.814   5.949  -0.409  1.00  0.00     0.230 C 
ATOM     20  C   UNL     1      -6.094   7.027   0.640  1.00  0.00     0.049 C 
ENDBRANCH  18  19
ENDBRANCH  16  18
ENDBRANCH  10  16
BRANCH  12  21
ATOM     21  C   UNL     1      -2.681  -0.500   0.183  1.00  0.00     0.101 C 
ATOM     22  N   UNL     1      -2.804  -1.627   0.241  1.00  0.00    -0.193 NA
ENDBRANCH  12  21
BRANCH  15  23
ATOM     23  N   UNL     1      -0.196   0.620   0.016  1.00  0.00    -0.369 N 
ATOM     24  H   UNL     1       0.759   1.001  -0.041  1.00  0.00     0.159 HD
ATOM     25  H   UNL     1      -0.339  -0.399   0.063  1.00  0.00     0.159 HD
ENDBRANCH  15  23
ENDBRANCH   1   9
BRANCH   3  26
ATOM     26  C   UNL     1      -3.058   2.795   4.983  1.00  0.00     0.265 C 
BRANCH  26  27
ATOM     27  O   UNL     1      -1.751   3.068   4.474  1.00  0.00    -0.487 OA
BRANCH  27  28
ATOM     28  C   UNL     1      -0.812   3.473   5.369  1.00  0.00     0.138 A 
ATOM     29  C   UNL     1       0.479   3.755   4.943  1.00  0.00     0.083 A 
ATOM     30  C   UNL     1      -1.143   3.609   6.709  1.00  0.00     0.048 A 
ATOM     31  C   UNL     1       1.432   4.166   5.856  1.00  0.00     0.024 A 
ATOM     32  Cl  UNL     1       0.896   3.593   3.266  1.00  0.00    -0.080 Cl
ATOM     33  C   UNL     1      -0.185   4.015   7.618  1.00  0.00     0.004 A 
ATOM     34  C   UNL     1       1.100   4.296   7.192  1.00  0.00     0.002 A 
ENDBRANCH  27  28
ENDBRANCH  26  27
ENDBRANCH   3  26
TORSDOF 9
