REMARK SMILES Cc1cc(C(=O)[C@@H](C)[NH2+]CCc2ccc(S(N)(=O)=O)cc2)c(C)n1-c1ccc(OC(F)F)cc1
REMARK SMILES IDX 7 1 8 2 5 3 6 4 4 5 1 6 2 7 24 8 3 9 22 10 23 11 25 12 34 13
REMARK SMILES IDX 26 14 33 15 27 16 28 17 29 18 30 19 31 20 32 21 9 22 10 25
REMARK SMILES IDX 11 26 12 27 21 28 13 29 20 30 14 31 15 32 16 33 18 34 19 35
REMARK SMILES IDX 17 36
REMARK H PARENT 9 23 9 24 17 37 17 38
REMARK Flexibility Score: inf
ROOT
ATOM      1  C   UNL     1       3.297  -2.065  -0.040  1.00  0.00     0.252 C 
ATOM      2  C   UNL     1       3.858  -1.917   1.376  1.00  0.00     0.084 C 
ENDROOT
BRANCH   1   3
ATOM      3  C   UNL     1       1.815  -1.795  -0.024  1.00  0.00     0.221 C 
ATOM      4  O   UNL     1       1.030  -2.720  -0.021  1.00  0.00    -0.287 OA
BRANCH   3   5
ATOM      5  C   UNL     1       1.322  -0.417  -0.013  1.00  0.00     0.045 A 
ATOM      6  C   UNL     1       1.629   3.297   0.004  1.00  0.00     0.065 C 
ATOM      7  C   UNL     1       1.258   1.836  -0.000  1.00  0.00     0.021 A 
ATOM      8  N   UNL     1      -0.016   1.343   0.009  1.00  0.00    -0.318 N 
ATOM      9  C   UNL     1       2.128   0.812  -0.014  1.00  0.00     0.035 A 
ATOM     10  C   UNL     1       0.002  -0.004   0.002  1.00  0.00     0.031 A 
ATOM     11  C   UNL     1      -1.206  -0.905   0.009  1.00  0.00     0.065 C 
BRANCH   8  12
ATOM     12  C   UNL     1      -1.179   2.127   0.019  1.00  0.00     0.046 A 
ATOM     13  C   UNL     1      -1.464   2.931   1.115  1.00  0.00     0.030 A 
ATOM     14  C   UNL     1      -2.041   2.105  -1.069  1.00  0.00     0.030 A 
ATOM     15  C   UNL     1      -2.609   3.704   1.124  1.00  0.00     0.049 A 
ATOM     16  C   UNL     1      -3.188   2.874  -1.056  1.00  0.00     0.049 A 
ATOM     17  C   UNL     1      -3.473   3.677   0.039  1.00  0.00     0.126 A 
BRANCH  17  18
ATOM     18  O   UNL     1      -4.599   4.439   0.048  1.00  0.00    -0.435 OA
BRANCH  18  19
ATOM     19  C   UNL     1      -5.443   4.362  -1.103  1.00  0.00     0.542 C 
ATOM     20  F   UNL     1      -4.726   4.765  -2.235  1.00  0.00    -0.167 F 
ATOM     21  F   UNL     1      -5.881   3.045  -1.273  1.00  0.00    -0.167 F 
ENDBRANCH  18  19
ENDBRANCH  17  18
ENDBRANCH   8  12
ENDBRANCH   3   5
ENDBRANCH   1   3
BRANCH   1  22
ATOM     22  N   UNL     1       3.534  -3.439  -0.522  1.00  0.00    -0.337 N 
ATOM     23  H   UNL     1       3.450  -4.096   0.267  1.00  0.00     0.346 HD
ATOM     24  H   UNL     1       2.831  -3.677  -1.236  1.00  0.00     0.346 HD
BRANCH  22  25
ATOM     25  C   UNL     1       4.883  -3.550  -1.109  1.00  0.00     0.265 C 
BRANCH  25  26
ATOM     26  C   UNL     1       5.100  -4.983  -1.599  1.00  0.00     0.097 C 
BRANCH  26  27
ATOM     27  C   UNL     1       6.476  -5.106  -2.201  1.00  0.00    -0.042 A 
ATOM     28  C   UNL     1       7.549  -5.462  -1.405  1.00  0.00     0.005 A 
ATOM     29  C   UNL     1       6.665  -4.868  -3.549  1.00  0.00     0.005 A 
ATOM     30  C   UNL     1       8.811  -5.574  -1.957  1.00  0.00     0.022 A 
ATOM     31  C   UNL     1       7.928  -4.976  -4.100  1.00  0.00     0.022 A 
ATOM     32  C   UNL     1       9.001  -5.331  -3.304  1.00  0.00     0.082 A 
BRANCH  32  33
ATOM     33  S   UNL     1      10.610  -5.473  -4.007  1.00  0.00     0.238 S 
ATOM     34  O   UNL     1      10.616  -4.663  -5.175  1.00  0.00    -0.207 OA
ATOM     35  O   UNL     1      11.536  -5.285  -2.945  1.00  0.00    -0.207 OA
BRANCH  33  36
ATOM     36  N   UNL     1      10.786  -7.038  -4.516  1.00  0.00    -0.225 NA
ATOM     37  H   UNL     1      10.426  -7.811  -3.938  1.00  0.00     0.137 HD
ATOM     38  H   UNL     1      11.255  -7.240  -5.411  1.00  0.00     0.137 HD
ENDBRANCH  33  36
ENDBRANCH  32  33
ENDBRANCH  26  27
ENDBRANCH  25  26
ENDBRANCH  22  25
ENDBRANCH   1  22
TORSDOF 11
