REMARK SMILES CC[C@@]12CCC[N@@H+]3CCc4c(n(c5ccccc45)[C@@H](C[NH2+]CCN4CCN(c5ccc(O)cc5)CC4)C1)[C@@H]32
REMARK SMILES IDX 22 1 21 2 20 5 19 6 3 7 38 8 37 9 4 10 7 11 11 12 5 13 6 14
REMARK SMILES IDX 8 15 12 17 10 18 9 19 13 20 18 21 14 22 17 23 15 24 16 25
REMARK SMILES IDX 2 26 1 27 23 28 24 29 36 30 25 31 35 32 26 33 27 34 28 35
REMARK SMILES IDX 34 36 29 37 33 38 30 39 31 40 32 41
REMARK H PARENT 21 3 21 4 7 16 32 42
REMARK Flexibility Score: inf
ROOT
ATOM      1  C   UNL     1      -6.197   3.535   1.815  1.00  0.00     0.276 C 
ENDROOT
BRANCH   1   2
ATOM      2  N   UNL     1      -4.970   4.330   1.954  1.00  0.00    -0.343 N 
ATOM      3  H   UNL     1      -5.025   4.890   2.817  1.00  0.00     0.346 HD
ATOM      4  H   UNL     1      -4.886   4.968   1.149  1.00  0.00     0.346 HD
BRANCH   2   5
ATOM      5  C   UNL     1      -3.785   3.464   2.013  1.00  0.00     0.286 C 
BRANCH   5   6
ATOM      6  C   UNL     1      -2.530   4.327   2.158  1.00  0.00     0.143 C 
ATOM      7  C   UNL     1      -0.737   2.823   1.096  1.00  0.00     0.030 C 
ATOM      8  C   UNL     1      -1.536   3.055  -0.177  1.00  0.00     0.238 C 
ATOM      9  C   UNL     1      -1.311   3.423   2.344  1.00  0.00     0.045 C 
ATOM     10  C   UNL     1      -0.343   1.360   1.188  1.00  0.00     0.019 C 
ATOM     11  N   UNL     1      -0.795   2.692  -1.369  1.00  0.00    -0.327 N 
ATOM     12  C   UNL     1      -1.849   4.529  -0.182  1.00  0.00     0.081 A 
ATOM     13  C   UNL     1       0.524   1.030  -0.031  1.00  0.00     0.062 C 
ATOM     14  C   UNL     1      -0.155   1.396  -1.335  1.00  0.00     0.262 C 
ATOM     15  C   UNL     1      -0.002   3.753  -1.976  1.00  0.00     0.267 C 
ATOM     16  H   UNL     1      -1.553   2.562  -2.054  1.00  0.00     0.348 HD
ATOM     17  N   UNL     1      -2.361   5.148   0.951  1.00  0.00    -0.330 N 
ATOM     18  C   UNL     1      -1.626   5.405  -1.154  1.00  0.00    -0.007 A 
ATOM     19  C   UNL     1      -0.888   4.963  -2.394  1.00  0.00     0.099 C 
ATOM     20  C   UNL     1      -2.591   6.447   0.650  1.00  0.00     0.049 A 
ATOM     21  C   UNL     1      -2.141   6.667  -0.690  1.00  0.00     0.004 A 
ATOM     22  C   UNL     1      -3.147   7.495   1.383  1.00  0.00     0.027 A 
ATOM     23  C   UNL     1      -2.251   7.926  -1.287  1.00  0.00     0.010 A 
ATOM     24  C   UNL     1      -3.241   8.726   0.761  1.00  0.00     0.002 A 
ATOM     25  C   UNL     1      -2.804   8.933  -0.537  1.00  0.00     0.001 A 
BRANCH   7  26
ATOM     26  C   UNL     1       0.580   3.567   0.867  1.00  0.00     0.010 C 
ATOM     27  C   UNL     1       1.503   3.352   2.068  1.00  0.00     0.005 C 
ENDBRANCH   7  26
ENDBRANCH   5   6
ENDBRANCH   2   5
ENDBRANCH   1   2
BRANCH   1  28
ATOM     28  C   UNL     1      -7.407   4.470   1.757  1.00  0.00     0.146 C 
BRANCH  28  29
ATOM     29  N   UNL     1      -8.634   3.675   1.617  1.00  0.00    -0.294 NA
ATOM     30  C   UNL     1      -9.828   4.513   1.796  1.00  0.00     0.106 C 
ATOM     31  C   UNL     1      -8.669   2.982   0.321  1.00  0.00     0.106 C 
ATOM     32  C   UNL     1     -11.080   3.635   1.722  1.00  0.00     0.132 C 
ATOM     33  C   UNL     1      -9.921   2.105   0.248  1.00  0.00     0.132 C 
ATOM     34  N   UNL     1     -11.114   2.943   0.426  1.00  0.00    -0.369 N 
BRANCH  34  35
ATOM     35  C   UNL     1     -12.283   2.185   0.294  1.00  0.00     0.037 A 
ATOM     36  C   UNL     1     -12.509   1.452  -0.864  1.00  0.00     0.030 A 
ATOM     37  C   UNL     1     -13.216   2.161   1.322  1.00  0.00     0.030 A 
ATOM     38  C   UNL     1     -13.663   0.705  -0.995  1.00  0.00     0.048 A 
ATOM     39  C   UNL     1     -14.372   1.417   1.188  1.00  0.00     0.048 A 
ATOM     40  C   UNL     1     -14.597   0.686   0.031  1.00  0.00     0.115 A 
BRANCH  40  41
ATOM     41  O   UNL     1     -15.733  -0.050  -0.098  1.00  0.00    -0.508 OA
ATOM     42  H   UNL     1     -16.471   0.595   0.035  1.00  0.00     0.293 HD
ENDBRANCH  40  41
ENDBRANCH  34  35
ENDBRANCH  28  29
ENDBRANCH   1  28
TORSDOF 8
