REMARK SMILES CC(C)Oc1c(I)cc(I)cc1/C=C(\C#N)c1nn(CCO)c(N)c1C#N
REMARK SMILES IDX 17 1 25 2 23 3 19 4 18 5 14 6 13 7 12 8 5 9 6 10 8 11 7 12
REMARK SMILES IDX 11 13 9 14 10 15 4 16 2 17 1 18 3 19 15 20 16 21 26 22 27 23
REMARK SMILES IDX 20 24 21 25 22 26 24 28
REMARK H PARENT 22 27 24 29 24 30
REMARK Flexibility Score: inf
ROOT
ATOM      1  C   UNL     1       1.253   2.351   0.284  1.00  0.00     0.123 A 
ATOM      2  C   UNL     1       2.628   1.839   0.252  1.00  0.00     0.123 A 
ATOM      3  C   UNL     1       3.451   2.915   0.573  1.00  0.00     0.140 A 
ATOM      4  N   UNL     1       2.659   3.986   0.783  1.00  0.00    -0.246 N 
ATOM      5  N   UNL     1       1.321   3.626   0.597  1.00  0.00    -0.169 NA
ENDROOT
BRANCH   1   6
ATOM      6  C   UNL     1       0.021   1.579   0.009  1.00  0.00     0.082 C 
ATOM      7  C   UNL     1      -1.194   2.190   0.071  1.00  0.00     0.034 C 
BRANCH   7   8
ATOM      8  C   UNL     1      -2.422   1.397  -0.054  1.00  0.00     0.020 A 
ATOM      9  C   UNL     1      -3.520   1.902  -0.770  1.00  0.00     0.140 A 
ATOM     10  C   UNL     1      -4.673   1.141  -0.885  1.00  0.00     0.057 A 
ATOM     11  C   UNL     1      -4.744  -0.104  -0.290  1.00  0.00     0.033 A 
ATOM     12  I   UNL     1      -6.312   1.883  -1.958  1.00  0.00    -0.040 I 
ATOM     13  C   UNL     1      -2.509   0.134   0.544  1.00  0.00     0.026 A 
ATOM     14  C   UNL     1      -3.666  -0.605   0.422  1.00  0.00     0.015 A 
ATOM     15  I   UNL     1      -3.794  -2.495   1.317  1.00  0.00    -0.044 I 
BRANCH   9  16
ATOM     16  O   UNL     1      -3.451   3.127  -1.351  1.00  0.00    -0.489 OA
BRANCH  16  17
ATOM     17  C   UNL     1      -3.098   3.171  -2.734  1.00  0.00     0.167 C 
ATOM     18  C   UNL     1      -3.819   4.339  -3.409  1.00  0.00     0.052 C 
ATOM     19  C   UNL     1      -1.585   3.360  -2.868  1.00  0.00     0.052 C 
ENDBRANCH  16  17
ENDBRANCH   9  16
ENDBRANCH   7   8
BRANCH   6  20
ATOM     20  C   UNL     1       0.107   0.190  -0.328  1.00  0.00     0.102 C 
ATOM     21  N   UNL     1       0.176  -0.912  -0.595  1.00  0.00    -0.192 NA
ENDBRANCH   6  20
ENDBRANCH   1   6
BRANCH   2  22
ATOM     22  C   UNL     1       3.041   0.502  -0.050  1.00  0.00     0.105 C 
ATOM     23  N   UNL     1       3.368  -0.559  -0.289  1.00  0.00    -0.192 NA
ENDBRANCH   2  22
BRANCH   4  24
ATOM     24  C   UNL     1       3.129   5.325   1.145  1.00  0.00     0.175 C 
BRANCH  24  25
ATOM     25  C   UNL     1       3.388   6.136  -0.127  1.00  0.00     0.179 C 
BRANCH  25  26
ATOM     26  O   UNL     1       3.847   7.442   0.226  1.00  0.00    -0.394 OA
ATOM     27  H   UNL     1       4.686   7.369   0.746  1.00  0.00     0.210 HD
ENDBRANCH  25  26
ENDBRANCH  24  25
ENDBRANCH   4  24
BRANCH   3  28
ATOM     28  N   UNL     1       4.829   2.890   0.662  1.00  0.00    -0.383 N 
ATOM     29  H   UNL     1       5.270   1.980   0.468  1.00  0.00     0.158 HD
ATOM     30  H   UNL     1       5.394   3.717   0.904  1.00  0.00     0.158 HD
ENDBRANCH   3  28
TORSDOF 10
