REMARK SMILES CC#C[C@@]1(O)CC[C@H]2[C@@H]3CC[C@]4(O)CC5(CCC4=C3[C@H](c3ccc(N(C)C)cc3)C[C@@]21C)OCCO5
REMARK SMILES IDX 4 1 6 2 7 3 8 4 31 5 30 6 20 7 19 8 18 9 17 10 16 11 15 12
REMARK SMILES IDX 14 13 12 14 11 15 10 16 9 17 33 18 34 19 35 20 36 21 32 22
REMARK SMILES IDX 3 23 1 24 2 25 5 26 21 28 29 29 22 30 28 31 23 32 24 33
REMARK SMILES IDX 25 34 26 35 27 36 13 37
REMARK H PARENT 5 27 13 38
REMARK Flexibility Score: inf
ROOT
ATOM      1  C   UNL     1       0.022   1.495  -2.545  1.00  0.00     0.131 C 
ATOM      2  C   UNL     1      -0.505   2.659  -3.422  1.00  0.00     0.050 C 
ATOM      3  C   UNL     1      -1.246   3.634  -2.466  1.00  0.00     0.009 C 
ATOM      4  C   UNL     1      -0.734   3.228  -1.079  1.00  0.00     0.006 C 
ATOM      5  C   UNL     1      -0.684   1.686  -1.195  1.00  0.00     0.012 C 
ATOM      6  C   UNL     1       0.053   1.172   0.017  1.00  0.00     0.024 C 
ATOM      7  C   UNL     1      -0.709   1.574   1.299  1.00  0.00     0.046 C 
ATOM      8  C   UNL     1      -0.940   3.066   1.367  1.00  0.00    -0.057 C 
ATOM      9  C   UNL     1      -0.677   3.840   2.399  1.00  0.00    -0.038 C 
ATOM     10  C   UNL     1      -0.095   3.321   3.675  1.00  0.00     0.039 C 
ATOM     11  C   UNL     1       0.048   4.220   4.867  1.00  0.00     0.070 C 
ATOM     12  C   UNL     1      -0.386   5.659   4.711  1.00  0.00     0.171 C 
ATOM     13  C   UNL     1      -0.137   6.126   3.278  1.00  0.00     0.105 C 
ATOM     14  C   UNL     1      -1.019   5.314   2.337  1.00  0.00     0.091 C 
ATOM     15  C   UNL     1      -0.808   5.827   0.908  1.00  0.00     0.041 C 
ATOM     16  C   UNL     1      -1.861   5.103   0.070  1.00  0.00     0.011 C 
ATOM     17  C   UNL     1      -1.597   3.615   0.102  1.00  0.00     0.020 C 
ATOM     18  O   UNL     1       0.374   6.491   5.608  1.00  0.00    -0.347 OA
ATOM     19  C   UNL     1      -0.574   7.406   6.202  1.00  0.00     0.192 C 
ATOM     20  C   UNL     1      -1.859   6.543   6.261  1.00  0.00     0.192 C 
ATOM     21  O   UNL     1      -1.779   5.787   5.035  1.00  0.00    -0.347 OA
ATOM     22  C   UNL     1      -2.075   1.067  -1.300  1.00  0.00     0.016 C 
ENDROOT
BRANCH   1  23
ATOM     23  C   UNL     1      -0.353   0.200  -3.133  1.00  0.00    -0.068 C 
ATOM     24  C   UNL     1      -1.027  -2.129  -4.191  1.00  0.00     0.107 C 
ATOM     25  C   UNL     1      -0.652  -0.833  -3.602  1.00  0.00    -0.104 C 
ENDBRANCH   1  23
BRANCH   1  26
ATOM     26  O   UNL     1       1.436   1.588  -2.384  1.00  0.00    -0.377 OA
ATOM     27  H   UNL     1       1.867   1.490  -3.270  1.00  0.00     0.212 HD
ENDBRANCH   1  26
BRANCH   7  28
ATOM     28  C   UNL     1       0.005   0.896   2.440  1.00  0.00    -0.041 A 
ATOM     29  C   UNL     1      -0.712   0.147   3.355  1.00  0.00     0.006 A 
ATOM     30  C   UNL     1       1.377   1.020   2.566  1.00  0.00     0.006 A 
ATOM     31  C   UNL     1      -0.060  -0.476   4.402  1.00  0.00     0.026 A 
ATOM     32  C   UNL     1       2.034   0.405   3.614  1.00  0.00     0.026 A 
ATOM     33  C   UNL     1       1.317  -0.348   4.535  1.00  0.00     0.036 A 
BRANCH  33  34
ATOM     34  N   UNL     1       1.979  -0.976   5.592  1.00  0.00    -0.378 N 
ATOM     35  C   UNL     1       1.221  -1.770   6.563  1.00  0.00     0.143 C 
ATOM     36  C   UNL     1       3.431  -0.841   5.731  1.00  0.00     0.143 C 
ENDBRANCH  33  34
ENDBRANCH   7  28
BRANCH  14  37
ATOM     37  O   UNL     1      -2.395   5.480   2.691  1.00  0.00    -0.385 OA
ATOM     38  H   UNL     1      -2.550   5.146   3.610  1.00  0.00     0.211 HD
ENDBRANCH  14  37
TORSDOF 5
