REMARK SMILES O=C(CSCc1nc2sc3c(c2c(=O)[nH]1)CCCC3)NNC(=O)c1cc2c(s1)CCCC2
REMARK SMILES IDX 3 1 2 2 20 3 1 5 21 6 22 7 23 8 24 10 25 11 26 12 28 13
REMARK SMILES IDX 32 14 27 15 31 16 29 17 30 18 4 19 5 20 6 21 7 22 15 23 8 24
REMARK SMILES IDX 13 25 12 27 9 28 14 29 11 30 10 31 16 32 19 33 17 34 18 35
REMARK H PARENT 20 4 21 9 15 26
REMARK Flexibility Score: inf
ROOT
ATOM      1  C   UNL     1      -3.708   9.239   0.086  1.00  0.00     0.171 C 
ENDROOT
BRANCH   1   2
ATOM      2  C   UNL     1      -2.603   8.213   0.070  1.00  0.00     0.248 C 
ATOM      3  N   UNL     1      -2.904   6.899   0.066  1.00  0.00    -0.267 N 
ATOM      4  H   UNL     1      -3.888   6.596   0.075  1.00  0.00     0.191 HD
ATOM      5  O   UNL     1      -1.444   8.570   0.060  1.00  0.00    -0.272 OA
BRANCH   3   6
ATOM      6  N   UNL     1      -1.877   5.946   0.051  1.00  0.00    -0.263 N 
ATOM      7  C   UNL     1      -2.177   4.632   0.048  1.00  0.00     0.279 C 
ATOM      8  O   UNL     1      -3.340   4.274   0.058  1.00  0.00    -0.266 OA
ATOM      9  H   UNL     1      -0.892   6.250   0.043  1.00  0.00     0.191 HD
BRANCH   7  10
ATOM     10  C   UNL     1      -1.103   3.635   0.032  1.00  0.00     0.094 A 
ATOM     11  C   UNL     1      -1.194   2.256   0.020  1.00  0.00     0.029 A 
ATOM     12  C   UNL     1      -0.019   1.522   0.010  1.00  0.00    -0.033 A 
ATOM     13  S   UNL     1       0.664   3.884   0.016  1.00  0.00    -0.135 S 
ATOM     14  C   UNL     1       0.002  -0.004   0.002  1.00  0.00     0.037 C 
ATOM     15  C   UNL     1       1.149   2.232   0.003  1.00  0.00     0.009 A 
ATOM     16  C   UNL     1       1.376  -0.475  -0.475  1.00  0.00     0.005 C 
ATOM     17  C   UNL     1       2.541   1.679  -0.012  1.00  0.00     0.047 C 
ATOM     18  C   UNL     1       2.475   0.190   0.358  1.00  0.00     0.006 C 
ENDBRANCH   7  10
ENDBRANCH   3   6
ENDBRANCH   1   2
BRANCH   1  19
ATOM     19  S   UNL     1      -2.987  10.903   0.088  1.00  0.00    -0.144 SA
BRANCH  19  20
ATOM     20  C   UNL     1      -4.428  12.005   0.108  1.00  0.00     0.145 C 
BRANCH  20  21
ATOM     21  C   UNL     1      -3.964  13.439   0.110  1.00  0.00     0.120 A 
ATOM     22  N   UNL     1      -2.684  13.699   0.104  1.00  0.00    -0.223 NA
ATOM     23  N   UNL     1      -4.884  14.438   0.125  1.00  0.00    -0.309 N 
ATOM     24  C   UNL     1      -2.241  14.953   0.102  1.00  0.00     0.131 A 
ATOM     25  C   UNL     1      -4.513  15.732   0.127  1.00  0.00     0.259 A 
ATOM     26  H   UNL     1      -5.886  14.200   0.134  1.00  0.00     0.171 HD
ATOM     27  C   UNL     1      -3.116  16.051   0.115  1.00  0.00     0.080 A 
ATOM     28  S   UNL     1      -0.634  15.706   0.089  1.00  0.00    -0.120 S 
ATOM     29  O   UNL     1      -5.351  16.616   0.140  1.00  0.00    -0.269 OA
ATOM     30  C   UNL     1      -2.486  17.371   0.115  1.00  0.00    -0.019 A 
ATOM     31  C   UNL     1      -1.137  17.406   0.102  1.00  0.00     0.011 A 
ATOM     32  C   UNL     1      -3.299  18.663   0.130  1.00  0.00     0.037 C 
ATOM     33  C   UNL     1      -0.261  18.621   0.099  1.00  0.00     0.047 C 
ATOM     34  C   UNL     1      -2.396  19.809   0.588  1.00  0.00     0.005 C 
ATOM     35  C   UNL     1      -1.123  19.839  -0.262  1.00  0.00     0.006 C 
ENDBRANCH  20  21
ENDBRANCH  19  20
ENDBRANCH   1  19
TORSDOF 6
