REMARK SMILES NNC(=O)/C(=C\c1cn(-c2ccccc2)nc1-c1ccccc1)NC(=O)c1ccc(Br)cc1
REMARK SMILES IDX 6 1 5 2 7 3 17 4 16 5 9 6 8 7 18 8 21 9 22 10 20 11 23 12
REMARK SMILES IDX 19 13 10 14 15 15 11 16 14 17 12 18 13 19 3 20 4 21 2 22
REMARK SMILES IDX 1 24 24 27 25 28 26 30 27 31 33 32 28 33 32 34 29 35 30 36
REMARK SMILES IDX 31 37
REMARK H PARENT 2 23 1 25 1 26 24 29
REMARK Flexibility Score: inf
ROOT
ATOM      1  C   UNL     1       3.012   1.663   0.446  1.00  0.00     0.044 C 
ATOM      2  C   UNL     1       1.709   1.305   0.348  1.00  0.00     0.109 C 
ENDROOT
BRANCH   1   3
ATOM      3  C   UNL     1       4.032   0.650   0.741  1.00  0.00     0.023 A 
ATOM      4  C   UNL     1       5.401   0.891   1.213  1.00  0.00     0.100 A 
ATOM      5  N   UNL     1       5.974  -0.284   1.350  1.00  0.00    -0.167 NA
ATOM      6  N   UNL     1       5.062  -1.283   0.996  1.00  0.00    -0.240 N 
ATOM      7  C   UNL     1       3.892  -0.721   0.635  1.00  0.00     0.123 A 
BRANCH   4   8
ATOM      8  C   UNL     1       6.019   2.210   1.484  1.00  0.00     0.003 A 
ATOM      9  C   UNL     1       7.175   4.674   1.992  1.00  0.00     0.000 A 
ATOM     10  C   UNL     1       6.270   4.538   0.954  1.00  0.00     0.001 A 
ATOM     11  C   UNL     1       7.505   3.584   2.777  1.00  0.00     0.001 A 
ATOM     12  C   UNL     1       5.695   3.311   0.693  1.00  0.00     0.010 A 
ATOM     13  C   UNL     1       6.932   2.353   2.529  1.00  0.00     0.010 A 
ENDBRANCH   4   8
BRANCH   6  14
ATOM     14  C   UNL     1       5.324  -2.659   1.018  1.00  0.00     0.065 A 
ATOM     15  C   UNL     1       6.525  -3.131   1.530  1.00  0.00     0.028 A 
ATOM     16  C   UNL     1       4.379  -3.554   0.533  1.00  0.00     0.028 A 
ATOM     17  C   UNL     1       6.779  -4.488   1.551  1.00  0.00     0.002 A 
ATOM     18  C   UNL     1       4.642  -4.910   0.551  1.00  0.00     0.002 A 
ATOM     19  C   UNL     1       5.839  -5.377   1.062  1.00  0.00     0.000 A 
ENDBRANCH   6  14
ENDBRANCH   1   3
BRANCH   2  20
ATOM     20  C   UNL     1       1.292  -0.052   0.717  1.00  0.00     0.281 C 
ATOM     21  O   UNL     1       0.987  -0.852  -0.148  1.00  0.00    -0.266 OA
ATOM     22  N   UNL     1       1.247  -0.413   2.015  1.00  0.00    -0.289 N 
ATOM     23  H   UNL     1       1.434   0.284   2.750  1.00  0.00     0.185 HD
BRANCH  22  24
ATOM     24  N   UNL     1       0.952  -1.702   2.355  1.00  0.00    -0.248 NA
ATOM     25  H   UNL     1       0.764  -2.399   1.620  1.00  0.00     0.143 HD
ATOM     26  H   UNL     1       0.917  -1.978   3.347  1.00  0.00     0.143 HD
ENDBRANCH  22  24
ENDBRANCH   2  20
BRANCH   2  27
ATOM     27  N   UNL     1       0.760   2.230  -0.107  1.00  0.00    -0.317 N 
ATOM     28  C   UNL     1      -0.552   1.926  -0.063  1.00  0.00     0.255 C 
ATOM     29  H   UNL     1       1.065   3.142  -0.476  1.00  0.00     0.170 HD
ATOM     30  O   UNL     1      -0.908   0.813   0.273  1.00  0.00    -0.269 OA
BRANCH  28  31
ATOM     31  C   UNL     1      -1.559   2.945  -0.427  1.00  0.00     0.040 A 
ATOM     32  C   UNL     1      -2.919   2.632  -0.387  1.00  0.00     0.015 A 
ATOM     33  C   UNL     1      -1.154   4.226  -0.807  1.00  0.00     0.015 A 
ATOM     34  C   UNL     1      -3.854   3.587  -0.728  1.00  0.00     0.016 A 
ATOM     35  C   UNL     1      -2.098   5.170  -1.152  1.00  0.00     0.016 A 
ATOM     36  C   UNL     1      -3.446   4.854  -1.110  1.00  0.00     0.018 A 
ATOM     37  Br  UNL     1      -4.734   6.157  -1.577  1.00  0.00    -0.051 Br
ENDBRANCH  28  31
ENDBRANCH   2  27
TORSDOF 7
