REMARK SMILES C[C@@H](CNC(=O)Cn1nc(O)c2ccccc2c1=O)N1CCc2ccccc21
REMARK SMILES IDX 4 1 5 2 6 3 3 5 2 6 1 7 20 8 28 9 21 10 23 11 27 12 22 13
REMARK SMILES IDX 24 14 26 15 25 16 7 17 8 18 9 19 18 20 10 21 19 22 17 23
REMARK SMILES IDX 12 24 16 25 13 26 15 27 14 28 11 29
REMARK H PARENT 4 4 11 30
REMARK Flexibility Score: inf
ROOT
ATOM      1  N   UNL     1       2.159  -0.819  -2.362  1.00  0.00    -0.352 N 
ATOM      2  C   UNL     1       2.069  -0.142  -3.523  1.00  0.00     0.241 C 
ATOM      3  O   UNL     1       1.777  -0.726  -4.545  1.00  0.00    -0.273 OA
ATOM      4  H   UNL     1       2.407  -0.323  -1.494  1.00  0.00     0.163 HD
ENDROOT
BRANCH   1   5
ATOM      5  C   UNL     1       1.905  -2.262  -2.333  1.00  0.00     0.140 C 
BRANCH   5   6
ATOM      6  C   UNL     1       1.960  -2.761  -0.888  1.00  0.00     0.098 C 
ATOM      7  C   UNL     1       3.385  -2.611  -0.351  1.00  0.00     0.033 C 
BRANCH   6   8
ATOM      8  N   UNL     1       1.567  -4.176  -0.844  1.00  0.00    -0.366 N 
ATOM      9  C   UNL     1       0.265  -4.351  -1.328  1.00  0.00     0.040 A 
ATOM     10  C   UNL     1       2.473  -5.004  -1.670  1.00  0.00     0.122 C 
ATOM     11  C   UNL     1       0.172  -5.502  -2.101  1.00  0.00    -0.023 A 
ATOM     12  C   UNL     1      -0.872  -3.567  -1.139  1.00  0.00     0.026 A 
ATOM     13  C   UNL     1       1.544  -6.142  -2.152  1.00  0.00     0.059 C 
ATOM     14  C   UNL     1      -1.030  -5.868  -2.668  1.00  0.00     0.006 A 
ATOM     15  C   UNL     1      -2.072  -3.937  -1.711  1.00  0.00     0.002 A 
ATOM     16  C   UNL     1      -2.155  -5.087  -2.474  1.00  0.00     0.000 A 
ENDBRANCH   6   8
ENDBRANCH   5   6
ENDBRANCH   1   5
BRANCH   2  17
ATOM     17  C   UNL     1       2.331   1.342  -3.552  1.00  0.00     0.248 C 
BRANCH  17  18
ATOM     18  N   UNL     1       2.170   1.840  -4.921  1.00  0.00    -0.216 N 
ATOM     19  N   UNL     1       3.276   1.858  -5.770  1.00  0.00    -0.130 NA
ATOM     20  C   UNL     1       0.955   2.263  -5.327  1.00  0.00     0.275 A 
ATOM     21  C   UNL     1       3.211   2.285  -7.000  1.00  0.00     0.237 A 
ATOM     22  O   UNL     1       0.003   2.232  -4.567  1.00  0.00    -0.267 OA
ATOM     23  C   UNL     1       0.801   2.764  -6.698  1.00  0.00     0.054 A 
ATOM     24  C   UNL     1       1.937   2.772  -7.539  1.00  0.00     0.051 A 
ATOM     25  C   UNL     1      -0.423   3.221  -7.183  1.00  0.00     0.015 A 
ATOM     26  C   UNL     1       1.822   3.238  -8.849  1.00  0.00     0.014 A 
ATOM     27  C   UNL     1      -0.513   3.677  -8.480  1.00  0.00     0.001 A 
ATOM     28  C   UNL     1       0.603   3.685  -9.307  1.00  0.00     0.001 A 
BRANCH  21  29
ATOM     29  O   UNL     1       4.321   2.279  -7.782  1.00  0.00    -0.492 OA
ATOM     30  H   UNL     1       4.421   3.216  -8.084  1.00  0.00     0.295 HD
ENDBRANCH  21  29
ENDBRANCH  17  18
ENDBRANCH   2  17
TORSDOF 6
