REMARK SMILES CCOc1cc(C[NH2+]CCc2ccc(S(N)(=O)=O)cc2)ccc1OCc1ccc(Cl)cc1Cl
REMARK SMILES IDX 8 1 7 4 6 5 4 6 23 7 5 8 22 9 21 10 3 11 2 12 1 13 24 14
REMARK SMILES IDX 25 15 26 16 32 17 27 18 31 19 33 20 28 21 29 22 30 23 9 24
REMARK SMILES IDX 10 25 11 26 20 27 12 28 19 29 13 30 14 31 15 32 17 33 18 34
REMARK SMILES IDX 16 35
REMARK H PARENT 8 2 8 3 16 36 16 37
REMARK Flexibility Score: inf
ROOT
ATOM      1  N   UNL     1      -7.045  -4.205  -1.383  1.00  0.00    -0.342 N 
ATOM      2  H   UNL     1      -7.290  -3.325  -1.860  1.00  0.00     0.346 HD
ATOM      3  H   UNL     1      -6.253  -4.645  -1.874  1.00  0.00     0.346 HD
ENDROOT
BRANCH   1   4
ATOM      4  C   UNL     1      -6.658  -3.914   0.010  1.00  0.00     0.297 C 
BRANCH   4   5
ATOM      5  C   UNL     1      -5.473  -2.982   0.009  1.00  0.00     0.010 A 
ATOM      6  C   UNL     1      -3.100  -2.643  -0.005  1.00  0.00     0.161 A 
ATOM      7  C   UNL     1      -3.300  -1.266   0.009  1.00  0.00     0.161 A 
ATOM      8  C   UNL     1      -4.191  -3.498   0.001  1.00  0.00     0.060 A 
ATOM      9  C   UNL     1      -4.588  -0.756   0.018  1.00  0.00     0.051 A 
ATOM     10  C   UNL     1      -5.672  -1.614   0.018  1.00  0.00     0.013 A 
BRANCH   6  11
ATOM     11  O   UNL     1      -1.838  -3.148  -0.019  1.00  0.00    -0.490 OA
BRANCH  11  12
ATOM     12  C   UNL     1      -1.709  -4.571  -0.034  1.00  0.00     0.226 C 
ATOM     13  C   UNL     1      -0.226  -4.949  -0.049  1.00  0.00     0.049 C 
ENDBRANCH  11  12
ENDBRANCH   6  11
BRANCH   7  14
ATOM     14  O   UNL     1      -2.233  -0.422   0.009  1.00  0.00    -0.485 OA
BRANCH  14  15
ATOM     15  C   UNL     1      -2.514   0.979   0.019  1.00  0.00     0.267 C 
BRANCH  15  16
ATOM     16  C   UNL     1      -1.219   1.750   0.017  1.00  0.00     0.008 A 
ATOM     17  C   UNL     1      -1.238   3.134   0.031  1.00  0.00     0.049 A 
ATOM     18  C   UNL     1      -0.013   1.076   0.008  1.00  0.00     0.010 A 
ATOM     19  C   UNL     1      -0.050   3.842   0.023  1.00  0.00     0.041 A 
ATOM     20  Cl  UNL     1      -2.754   3.981   0.049  1.00  0.00    -0.084 Cl
ATOM     21  C   UNL     1       1.175   1.783   0.000  1.00  0.00     0.021 A 
ATOM     22  C   UNL     1       1.157   3.166   0.008  1.00  0.00     0.042 A 
ATOM     23  Cl  UNL     1       2.648   4.054  -0.001  1.00  0.00    -0.084 Cl
ENDBRANCH  15  16
ENDBRANCH  14  15
ENDBRANCH   7  14
ENDBRANCH   4   5
ENDBRANCH   1   4
BRANCH   1  24
ATOM     24  C   UNL     1      -8.204  -5.116  -1.413  1.00  0.00     0.265 C 
BRANCH  24  25
ATOM     25  C   UNL     1      -8.582  -5.399  -2.869  1.00  0.00     0.097 C 
BRANCH  25  26
ATOM     26  C   UNL     1      -9.766  -6.330  -2.908  1.00  0.00    -0.042 A 
ATOM     27  C   UNL     1     -11.049  -5.816  -2.917  1.00  0.00     0.005 A 
ATOM     28  C   UNL     1      -9.569  -7.698  -2.941  1.00  0.00     0.005 A 
ATOM     29  C   UNL     1     -12.136  -6.670  -2.954  1.00  0.00     0.022 A 
ATOM     30  C   UNL     1     -10.656  -8.552  -2.973  1.00  0.00     0.022 A 
ATOM     31  C   UNL     1     -11.939  -8.038  -2.981  1.00  0.00     0.082 A 
BRANCH  31  32
ATOM     32  S   UNL     1     -13.324  -9.127  -3.026  1.00  0.00     0.238 S 
ATOM     33  O   UNL     1     -12.881 -10.369  -2.497  1.00  0.00    -0.207 OA
ATOM     34  O   UNL     1     -14.421  -8.411  -2.476  1.00  0.00    -0.207 OA
BRANCH  32  35
ATOM     35  N   UNL     1     -13.685  -9.394  -4.620  1.00  0.00    -0.225 NA
ATOM     36  H   UNL     1     -13.654 -10.350  -5.002  1.00  0.00     0.137 HD
ATOM     37  H   UNL     1     -13.940  -8.604  -5.230  1.00  0.00     0.137 HD
ENDBRANCH  32  35
ENDBRANCH  31  32
ENDBRANCH  25  26
ENDBRANCH  24  25
ENDBRANCH   1  24
TORSDOF 12
