REMARK SMILES C=CCn1c(C)cc(C(=O)CSc2nnc(-c3cc(-c4ccc(C)cc4)nc4ccccc34)n2N)c1C
REMARK SMILES IDX 11 1 12 2 13 3 16 4 34 5 15 6 14 7 17 8 19 9 27 10 18 11
REMARK SMILES IDX 28 12 33 13 29 14 32 15 30 16 31 17 20 18 24 19 23 20 25 21
REMARK SMILES IDX 22 22 26 23 21 24 35 25 9 28 10 29 8 30 36 31 7 32 4 33
REMARK SMILES IDX 37 34 5 35 6 36 3 37 2 38 1 39
REMARK H PARENT 35 26 35 27
REMARK Flexibility Score: inf
ROOT
ATOM      1  C   UNL     1      -8.151   1.161   0.081  1.00  0.00     0.159 C 
ENDROOT
BRANCH   1   2
ATOM      2  S   UNL     1      -7.685   2.910   0.087  1.00  0.00    -0.076 SA
BRANCH   2   3
ATOM      3  C   UNL     1      -5.930   2.759   0.070  1.00  0.00     0.210 A 
ATOM      4  C   UNL     1      -3.788   3.190   0.053  1.00  0.00     0.183 A 
ATOM      5  N   UNL     1      -5.030   3.785   0.067  1.00  0.00    -0.217 N 
ATOM      6  N   UNL     1      -3.983   1.890   0.042  1.00  0.00    -0.127 NA
ATOM      7  N   UNL     1      -5.243   1.636   0.057  1.00  0.00    -0.121 NA
BRANCH   4   8
ATOM      8  C   UNL     1      -2.485   3.880   0.045  1.00  0.00     0.033 A 
ATOM      9  C   UNL     1      -1.145   5.881   0.043  1.00  0.00     0.072 A 
ATOM     10  N   UNL     1      -0.023   5.189   0.029  1.00  0.00    -0.248 NA
ATOM     11  C   UNL     1      -2.402   5.269   0.052  1.00  0.00     0.041 A 
ATOM     12  C   UNL     1      -0.008   3.853   0.022  1.00  0.00     0.072 A 
ATOM     13  C   UNL     1      -1.226   3.132   0.030  1.00  0.00     0.011 A 
ATOM     14  C   UNL     1       1.205   3.142   0.007  1.00  0.00     0.029 A 
ATOM     15  C   UNL     1      -1.208   1.733   0.017  1.00  0.00     0.011 A 
ATOM     16  C   UNL     1       1.189   1.780   0.000  1.00  0.00     0.002 A 
ATOM     17  C   UNL     1      -0.013   1.076   0.008  1.00  0.00     0.001 A 
BRANCH   9  18
ATOM     18  C   UNL     1      -1.071   7.363   0.051  1.00  0.00     0.000 A 
ATOM     19  C   UNL     1      -0.859  11.633   0.070  1.00  0.00     0.044 C 
ATOM     20  C   UNL     1      -0.934  10.128   0.064  1.00  0.00    -0.051 A 
ATOM     21  C   UNL     1      -2.166   9.499   0.072  1.00  0.00     0.004 A 
ATOM     22  C   UNL     1       0.230   9.380   0.049  1.00  0.00     0.004 A 
ATOM     23  C   UNL     1      -2.241   8.121   0.060  1.00  0.00     0.010 A 
ATOM     24  C   UNL     1       0.167   8.002   0.043  1.00  0.00     0.010 A 
ENDBRANCH   9  18
ENDBRANCH   4   8
BRANCH   5  25
ATOM     25  N   UNL     1      -5.303   5.123   0.077  1.00  0.00    -0.335 N 
ATOM     26  H   UNL     1      -4.475   5.735   0.073  1.00  0.00     0.178 HD
ATOM     27  H   UNL     1      -6.258   5.511   0.088  1.00  0.00     0.178 HD
ENDBRANCH   5  25
ENDBRANCH   2   3
ENDBRANCH   1   2
BRANCH   1  28
ATOM     28  C   UNL     1      -9.653   1.042   0.094  1.00  0.00     0.175 C 
ATOM     29  O   UNL     1     -10.342   2.041   0.107  1.00  0.00    -0.293 OA
BRANCH  28  30
ATOM     30  C   UNL     1     -10.283  -0.281   0.092  1.00  0.00     0.039 A 
ATOM     31  C   UNL     1     -11.636  -0.559   0.103  1.00  0.00     0.026 A 
ATOM     32  C   UNL     1      -9.604  -1.584   0.072  1.00  0.00     0.035 A 
ATOM     33  N   UNL     1     -11.790  -1.895   0.097  1.00  0.00    -0.345 N 
ATOM     34  C   UNL     1     -12.748   0.458   0.120  1.00  0.00     0.065 C 
ATOM     35  C   UNL     1     -10.573  -2.515   0.082  1.00  0.00     0.016 A 
ATOM     36  C   UNL     1     -10.352  -4.005   0.070  1.00  0.00     0.064 C 
BRANCH  33  37
ATOM     37  C   UNL     1     -13.080  -2.589   0.105  1.00  0.00     0.149 C 
BRANCH  37  38
ATOM     38  C   UNL     1     -13.537  -2.818  -1.313  1.00  0.00    -0.013 C 
ATOM     39  C   UNL     1     -13.834  -4.027  -1.718  1.00  0.00     0.006 C 
ENDBRANCH  37  38
ENDBRANCH  33  37
ENDBRANCH  28  30
ENDBRANCH   1  28
TORSDOF 9
