REMARK SMILES Cc1cc(C(=O)Nc2nc(CN3CCCCCC3)cs2)c2nc3n(c2n1)CCCCC3
REMARK SMILES IDX 8 1 9 2 10 3 19 4 20 5 7 6 5 7 6 8 4 10 1 11 2 12 26 13 3 14
REMARK SMILES IDX 25 15 21 16 24 17 22 18 23 19 27 20 28 21 29 22 31 24 30 25
REMARK SMILES IDX 11 27 12 28 18 29 17 30 16 31 13 33 14 34 15 35
REMARK H PARENT 7 9
REMARK Flexibility Score: 170.00
ROOT
ATOM      1  C   UNL     1       1.530   4.408   6.849  1.00  0.00     0.189 A 
ATOM      2  N   UNL     1       1.764   4.974   8.017  1.00  0.00    -0.224 NA
ATOM      3  C   UNL     1       2.988   5.295   8.387  1.00  0.00     0.068 A 
ATOM      4  C   UNL     1       4.009   5.041   7.533  1.00  0.00     0.093 A 
ATOM      5  S   UNL     1       3.123   4.306   6.166  1.00  0.00    -0.105 S 
ENDROOT
BRANCH   1   6
ATOM      6  N   UNL     1       0.319   4.002   6.303  1.00  0.00    -0.298 N 
ATOM      7  C   UNL     1       0.286   3.442   5.078  1.00  0.00     0.259 C 
ATOM      8  O   UNL     1       1.316   3.291   4.450  1.00  0.00    -0.269 OA
ATOM      9  H   UNL     1      -0.554   4.130   6.834  1.00  0.00     0.172 HD
BRANCH   7  10
ATOM     10  C   UNL     1      -1.002   3.011   4.497  1.00  0.00     0.071 A 
ATOM     11  C   UNL     1      -4.675   2.932   5.380  1.00  0.00     0.067 C 
ATOM     12  C   UNL     1      -3.385   2.757   4.620  1.00  0.00     0.041 A 
ATOM     13  N   UNL     1      -3.414   2.211   3.422  1.00  0.00    -0.233 NA
ATOM     14  C   UNL     1      -2.199   3.174   5.197  1.00  0.00     0.039 A 
ATOM     15  C   UNL     1      -2.317   2.034   2.706  1.00  0.00     0.161 A 
ATOM     16  C   UNL     1      -1.063   2.422   3.217  1.00  0.00     0.121 A 
ATOM     17  N   UNL     1      -2.065   1.509   1.457  1.00  0.00    -0.313 N 
ATOM     18  N   UNL     1      -0.140   2.115   2.286  1.00  0.00    -0.231 NA
ATOM     19  C   UNL     1      -0.721   1.573   1.250  1.00  0.00     0.111 A 
BRANCH  17  20
ATOM     20  C   UNL     1      -3.064   0.987   0.520  1.00  0.00     0.125 C 
BRANCH  20  21
ATOM     21  C   UNL     1      -2.422  -0.073  -0.377  1.00  0.00     0.022 C 
BRANCH  21  22
ATOM     22  C   UNL     1      -1.839   0.595  -1.621  1.00  0.00     0.002 CG0
ATOM     23  G   UNL     1      -0.754   1.593  -1.231  1.00  0.00     0.000 G0
ENDBRANCH  21  22
ENDBRANCH  20  21
ENDBRANCH  17  20
BRANCH  19  24
ATOM     24  C   UNL     1      -0.013   1.086   0.008  1.00  0.00     0.075 C 
BRANCH  24  25
ATOM     25  C   UNL     1      -0.754   1.593  -1.231  1.00  0.00     0.008 CG0
ATOM     26  G   UNL     1      -1.839   0.595  -1.621  1.00  0.00     0.000 G0
ENDBRANCH  24  25
ENDBRANCH  19  24
ENDBRANCH   7  10
ENDBRANCH   1   6
BRANCH   3  27
ATOM     27  C   UNL     1       3.245   5.936   9.727  1.00  0.00     0.141 C 
BRANCH  27  28
ATOM     28  N   UNL     1       3.048   7.388   9.621  1.00  0.00    -0.297 NA
BRANCH  28  29
ATOM     29  C   UNL     1       3.056   8.023  10.957  1.00  0.00     0.085 C 
BRANCH  29  30
ATOM     30  C   UNL     1       4.444   8.341  11.444  1.00  0.00     0.016 C 
BRANCH  30  31
ATOM     31  C   UNL     1       4.777   9.797  11.057  1.00  0.00     0.001 CG1
ATOM     32  G   UNL     1       5.154   9.922   9.654  1.00  0.00     0.000 G1
ENDBRANCH  30  31
ENDBRANCH  29  30
ENDBRANCH  28  29
BRANCH  28  33
ATOM     33  C   UNL     1       3.994   7.982   8.650  1.00  0.00     0.085 C 
BRANCH  33  34
ATOM     34  C   UNL     1       4.019   9.485   8.704  1.00  0.00     0.016 C 
BRANCH  34  35
ATOM     35  C   UNL     1       5.154   9.922   9.654  1.00  0.00     0.001 CG1
ATOM     36  G   UNL     1       4.777   9.797  11.057  1.00  0.00     0.000 G1
ENDBRANCH  34  35
ENDBRANCH  33  34
ENDBRANCH  28  33
ENDBRANCH  27  28
ENDBRANCH   3  27
TORSDOF 4
