REMARK SMILES CCCn1c(SCC(=O)Nc2sc3c(c2C(=O)OC)CC[C@H](C)C3)nnc1-c1ccoc1C
REMARK SMILES IDX 7 1 6 2 5 3 4 4 27 5 25 6 26 7 3 8 2 9 1 10 28 11 32 12
REMARK SMILES IDX 29 13 31 14 33 15 30 16 8 17 9 18 10 19 11 21 12 22 15 23
REMARK SMILES IDX 13 24 14 25 24 26 20 27 22 28 21 29 23 30 16 31 17 32 18 33
REMARK SMILES IDX 19 34
REMARK H PARENT 10 20
REMARK Flexibility Score: inf
ROOT
ATOM      1  C   UNL     1      -4.091  -7.611   0.503  1.00  0.00     0.178 C 
ENDROOT
BRANCH   1   2
ATOM      2  S   UNL     1      -5.834  -7.664   0.017  1.00  0.00    -0.076 SA
BRANCH   2   3
ATOM      3  C   UNL     1      -6.145  -9.391   0.182  1.00  0.00     0.191 A 
ATOM      4  N   UNL     1      -7.331 -10.027  -0.056  1.00  0.00    -0.302 N 
ATOM      5  C   UNL     1      -7.096 -11.358   0.200  1.00  0.00     0.168 A 
ATOM      6  N   UNL     1      -5.282 -10.305   0.561  1.00  0.00    -0.123 NA
ATOM      7  N   UNL     1      -5.841 -11.462   0.572  1.00  0.00    -0.129 NA
BRANCH   4   8
ATOM      8  C   UNL     1      -8.590  -9.420  -0.495  1.00  0.00     0.126 C 
BRANCH   8   9
ATOM      9  C   UNL     1      -8.701  -9.521  -2.018  1.00  0.00     0.019 C 
ATOM     10  C   UNL     1     -10.016  -8.887  -2.476  1.00  0.00     0.006 C 
ENDBRANCH   8   9
ENDBRANCH   4   8
BRANCH   5  11
ATOM     11  C   UNL     1      -8.073 -12.462   0.085  1.00  0.00     0.060 A 
ATOM     12  C   UNL     1      -7.883 -13.667  -0.517  1.00  0.00     0.111 A 
ATOM     13  C   UNL     1      -9.451 -12.482   0.590  1.00  0.00     0.054 A 
ATOM     14  O   UNL     1      -9.012 -14.381  -0.401  1.00  0.00    -0.469 OA
ATOM     15  C   UNL     1      -6.617 -14.124  -1.196  1.00  0.00     0.088 C 
ATOM     16  C   UNL     1      -9.952 -13.683   0.254  1.00  0.00     0.196 A 
ENDBRANCH   5  11
ENDBRANCH   2   3
ENDBRANCH   1   2
BRANCH   1  17
ATOM     17  C   UNL     1      -3.594  -6.190   0.436  1.00  0.00     0.235 C 
ATOM     18  O   UNL     1      -4.344  -5.301   0.093  1.00  0.00    -0.274 OA
ATOM     19  N   UNL     1      -2.316  -5.907   0.757  1.00  0.00    -0.316 N 
ATOM     20  H   UNL     1      -1.679  -6.663   1.049  1.00  0.00     0.170 HD
BRANCH  19  21
ATOM     21  C   UNL     1      -1.859  -4.601   0.695  1.00  0.00     0.110 A 
ATOM     22  S   UNL     1      -2.731  -3.175   0.238  1.00  0.00    -0.122 S 
ATOM     23  C   UNL     1      -0.590  -4.116   0.985  1.00  0.00     0.098 A 
ATOM     24  C   UNL     1      -1.441  -1.977   0.428  1.00  0.00     0.011 A 
ATOM     25  C   UNL     1      -0.368  -2.687   0.838  1.00  0.00    -0.017 A 
ATOM     26  C   UNL     1      -1.510  -0.500   0.190  1.00  0.00     0.050 C 
ATOM     27  C   UNL     1       0.965  -2.003   1.117  1.00  0.00     0.038 C 
ATOM     28  C   UNL     1      -0.077   0.046   0.118  1.00  0.00    -0.009 C 
ATOM     29  C   UNL     1       0.720  -0.505   1.305  1.00  0.00     0.008 C 
ATOM     30  C   UNL     1      -0.106   1.574   0.185  1.00  0.00     0.008 C 
BRANCH  23  31
ATOM     31  C   UNL     1       0.484  -5.010   1.421  1.00  0.00     0.341 C 
ATOM     32  O   UNL     1       0.645  -5.234   2.606  1.00  0.00    -0.246 OA
BRANCH  31  33
ATOM     33  O   UNL     1       1.295  -5.586   0.509  1.00  0.00    -0.465 OA
ATOM     34  C   UNL     1       2.338  -6.461   1.014  1.00  0.00     0.282 C 
ENDBRANCH  31  33
ENDBRANCH  23  31
ENDBRANCH  19  21
ENDBRANCH   1  17
TORSDOF 9
