REMARK SMILES CCc1ccc2c(Cl)c(C(=O)N/N=C/c3ccc(OC)c(CSc4nc(C(F)F)cc(C)c4C#N)c3)sc2c1
REMARK SMILES IDX 15 1 16 2 17 3 18 4 21 5 36 6 14 7 13 8 12 9 10 10 11 11
REMARK SMILES IDX 9 13 3 14 39 15 4 16 38 17 5 18 6 19 37 20 7 21 8 22 2 23
REMARK SMILES IDX 1 24 22 25 23 26 24 27 25 28 33 29 26 30 31 31 30 32 32 33
REMARK SMILES IDX 34 34 35 35 27 36 28 37 29 38 19 39 20 40
REMARK H PARENT 12 12
REMARK Flexibility Score: inf
ROOT
ATOM      1  C   UNL     1       0.040  -2.775  -0.012  1.00  0.00    -0.005 A 
ATOM      2  C   UNL     1       1.239  -2.058  -0.020  1.00  0.00     0.013 A 
ATOM      3  C   UNL     1       1.216  -0.680  -0.013  1.00  0.00     0.047 A 
ATOM      4  C   UNL     1       0.002  -0.004   0.002  1.00  0.00     0.122 A 
ATOM      5  C   UNL     1      -1.192  -0.713   0.015  1.00  0.00     0.005 A 
ATOM      6  C   UNL     1      -1.179  -2.091   0.003  1.00  0.00     0.018 A 
ENDROOT
BRANCH   1   7
ATOM      7  C   UNL     1       0.060  -4.249  -0.019  1.00  0.00     0.141 C 
ATOM      8  N   UNL     1       1.193  -4.883  -0.034  1.00  0.00    -0.180 NA
BRANCH   8   9
ATOM      9  N   UNL     1       1.212  -6.284  -0.041  1.00  0.00    -0.242 N 
ATOM     10  C   UNL     1       2.388  -6.941  -0.056  1.00  0.00     0.283 C 
ATOM     11  O   UNL     1       3.433  -6.319  -0.063  1.00  0.00    -0.266 OA
ATOM     12  H   UNL     1       0.327  -6.811  -0.035  1.00  0.00     0.194 HD
BRANCH  10  13
ATOM     13  C   UNL     1       2.408  -8.409  -0.063  1.00  0.00     0.114 A 
ATOM     14  C   UNL     1       2.579 -13.358  -0.091  1.00  0.00    -0.047 A 
ATOM     15  C   UNL     1       1.591 -12.395  -0.077  1.00  0.00     0.023 A 
ATOM     16  C   UNL     1       3.913 -12.969  -0.102  1.00  0.00     0.004 A 
ATOM     17  C   UNL     1       1.941 -11.062  -0.073  1.00  0.00     0.037 A 
ATOM     18  C   UNL     1       4.273 -11.660  -0.099  1.00  0.00     0.011 A 
ATOM     19  C   UNL     1       3.290 -10.637  -0.084  1.00  0.00     0.012 A 
ATOM     20  S   UNL     1       1.027  -9.540  -0.056  1.00  0.00    -0.128 S 
ATOM     21  C   UNL     1       3.484  -9.243  -0.084  1.00  0.00     0.072 A 
ATOM     22  Cl  UNL     1       5.091  -8.588  -0.104  1.00  0.00    -0.082 Cl
BRANCH  14  23
ATOM     23  C   UNL     1       2.215 -14.820  -0.095  1.00  0.00     0.032 C 
ATOM     24  C   UNL     1       2.105 -15.322   1.347  1.00  0.00     0.009 C 
ENDBRANCH  14  23
ENDBRANCH  10  13
ENDBRANCH   8   9
ENDBRANCH   1   7
BRANCH   5  25
ATOM     25  C   UNL     1      -2.505   0.026   0.038  1.00  0.00     0.116 C 
BRANCH  25  26
ATOM     26  S   UNL     1      -3.055   0.331  -1.660  1.00  0.00    -0.100 SA
BRANCH  26  27
ATOM     27  C   UNL     1      -4.566   1.182  -1.344  1.00  0.00     0.115 A 
ATOM     28  N   UNL     1      -4.949   1.402  -0.096  1.00  0.00    -0.239 NA
ATOM     29  C   UNL     1      -5.354   1.629  -2.419  1.00  0.00     0.087 A 
ATOM     30  C   UNL     1      -6.072   2.035   0.184  1.00  0.00     0.108 A 
ATOM     31  C   UNL     1      -6.552   2.299  -2.143  1.00  0.00    -0.029 A 
ATOM     32  C   UNL     1      -6.903   2.500  -0.819  1.00  0.00     0.034 A 
ATOM     33  C   UNL     1      -7.435   2.793  -3.260  1.00  0.00     0.046 C 
BRANCH  29  34
ATOM     34  C   UNL     1      -4.942   1.400  -3.771  1.00  0.00     0.102 C 
ATOM     35  N   UNL     1      -4.615   1.218  -4.844  1.00  0.00    -0.192 NA
ENDBRANCH  29  34
BRANCH  30  36
ATOM     36  C   UNL     1      -6.457   2.256   1.624  1.00  0.00     0.391 C 
ATOM     37  F   UNL     1      -5.300   2.365   2.405  1.00  0.00    -0.203 F 
ATOM     38  F   UNL     1      -7.204   3.434   1.732  1.00  0.00    -0.203 F 
ENDBRANCH  30  36
ENDBRANCH  26  27
ENDBRANCH  25  26
ENDBRANCH   5  25
BRANCH   4  39
ATOM     39  O   UNL     1      -0.016   1.354   0.009  1.00  0.00    -0.496 OA
ATOM     40  C   UNL     1       1.248   2.020   0.001  1.00  0.00     0.278 C 
ENDBRANCH   4  39
TORSDOF 10
