REMARK SMILES COC(=O)[C@@H]1Cc2c([nH]c3ccccc23)[C@H]2C[C@@H]([N@@H+]3CC[C@@H](O)C3)C[C@@H](c3cccc(Cl)c3)N21
REMARK SMILES IDX 5 1 6 2 7 3 15 4 14 5 13 6 12 7 11 8 10 9 9 10 8 11 16 12
REMARK SMILES IDX 26 13 25 14 18 15 17 16 34 17 3 19 4 20 2 21 1 22 27 23
REMARK SMILES IDX 33 24 28 25 31 26 29 27 30 28 32 29 19 30 20 31 24 32 21 34
REMARK SMILES IDX 22 35 23 36
REMARK H PARENT 9 18 19 33 23 37
REMARK Flexibility Score: inf
ROOT
ATOM      1  C   UNL     1      -1.329   1.940   0.019  1.00  0.00     0.173 C 
ATOM      2  C   UNL     1      -1.471   2.716   1.335  1.00  0.00     0.069 C 
ATOM      3  C   UNL     1      -1.711   1.723   2.444  1.00  0.00    -0.016 A 
ATOM      4  C   UNL     1      -1.611   1.906   3.875  1.00  0.00     0.003 A 
ATOM      5  C   UNL     1      -1.275   3.004   4.673  1.00  0.00     0.010 A 
ATOM      6  C   UNL     1      -1.282   2.811   6.032  1.00  0.00     0.001 A 
ATOM      7  C   UNL     1      -1.605   1.589   6.600  1.00  0.00     0.002 A 
ATOM      8  C   UNL     1      -1.941   0.486   5.836  1.00  0.00     0.026 A 
ATOM      9  C   UNL     1      -1.943   0.652   4.452  1.00  0.00     0.046 A 
ATOM     10  N   UNL     1      -2.219  -0.208   3.428  1.00  0.00    -0.357 N 
ATOM     11  C   UNL     1      -2.079   0.439   2.231  1.00  0.00     0.037 A 
ATOM     12  C   UNL     1      -2.286  -0.134   0.851  1.00  0.00     0.111 C 
ATOM     13  C   UNL     1      -2.569   0.477  -1.474  1.00  0.00     0.094 C 
ATOM     14  C   UNL     1      -3.842  -0.367  -1.578  1.00  0.00     0.089 C 
ATOM     15  C   UNL     1      -3.764  -1.533  -0.589  1.00  0.00     0.188 C 
ATOM     16  C   UNL     1      -3.557  -0.986   0.826  1.00  0.00     0.090 C 
ATOM     17  N   UNL     1      -2.464   0.991  -0.093  1.00  0.00    -0.274 NA
ATOM     18  H   UNL     1      -2.492  -1.195   3.541  1.00  0.00     0.166 HD
ENDROOT
BRANCH   1  19
ATOM     19  C   UNL     1      -0.014   1.204   0.009  1.00  0.00     0.323 C 
ATOM     20  O   UNL     1       0.021   0.034  -0.291  1.00  0.00    -0.250 OA
BRANCH  19  21
ATOM     21  O   UNL     1       1.119   1.850   0.327  1.00  0.00    -0.468 OA
ATOM     22  C   UNL     1       2.349   1.080   0.290  1.00  0.00     0.282 C 
ENDBRANCH  19  21
ENDBRANCH   1  19
BRANCH  13  23
ATOM     23  C   UNL     1      -2.657   1.641  -2.427  1.00  0.00    -0.029 A 
ATOM     24  C   UNL     1      -3.394   2.759  -2.086  1.00  0.00     0.025 A 
ATOM     25  C   UNL     1      -2.005   1.588  -3.645  1.00  0.00     0.005 A 
ATOM     26  C   UNL     1      -3.471   3.829  -2.959  1.00  0.00     0.041 A 
ATOM     27  C   UNL     1      -2.086   2.655  -4.520  1.00  0.00     0.002 A 
ATOM     28  C   UNL     1      -2.818   3.776  -4.178  1.00  0.00     0.020 A 
ATOM     29  Cl  UNL     1      -4.392   5.237  -2.528  1.00  0.00    -0.084 Cl
ENDBRANCH  13  23
BRANCH  15  30
ATOM     30  N   UNL     1      -5.033  -2.306  -0.635  1.00  0.00    -0.330 N 
ATOM     31  C   UNL     1      -4.982  -3.428   0.320  1.00  0.00     0.265 C 
ATOM     32  C   UNL     1      -5.248  -2.844  -1.991  1.00  0.00     0.294 C 
ATOM     33  H   UNL     1      -5.806  -1.673  -0.385  1.00  0.00     0.348 HD
ATOM     34  C   UNL     1      -5.796  -4.554  -0.365  1.00  0.00     0.099 C 
ATOM     35  C   UNL     1      -5.390  -4.375  -1.852  1.00  0.00     0.174 C 
BRANCH  35  36
ATOM     36  O   UNL     1      -6.415  -4.867  -2.718  1.00  0.00    -0.387 OA
ATOM     37  H   UNL     1      -7.252  -4.370  -2.541  1.00  0.00     0.211 HD
ENDBRANCH  35  36
ENDBRANCH  15  30
TORSDOF 5
