REMARK SMILES CC(=O)c1c(S[C@@H](C)C(=O)c2c(C)[nH]c3ccccc23)nc(=O)[nH]c1C
REMARK SMILES IDX 7 1 8 2 9 3 10 4 11 5 13 6 12 7 14 8 15 9 20 11 16 12 19 13
REMARK SMILES IDX 17 14 18 15 6 16 5 17 21 18 4 19 22 20 25 21 24 22 23 23
REMARK SMILES IDX 26 24 2 26 3 27 1 28
REMARK H PARENT 14 10 24 25
REMARK Flexibility Score: inf
ROOT
ATOM      1  C   UNL     1       4.767   5.001  -0.705  1.00  0.00     0.122 C 
ATOM      2  C   UNL     1       5.103   5.781  -1.978  1.00  0.00     0.028 C 
ENDROOT
BRANCH   1   3
ATOM      3  C   UNL     1       3.926   3.801  -1.059  1.00  0.00     0.178 C 
ATOM      4  O   UNL     1       4.455   2.725  -1.252  1.00  0.00    -0.293 OA
BRANCH   3   5
ATOM      5  C   UNL     1       2.519   3.929  -1.167  1.00  0.00     0.047 A 
ATOM      6  C   UNL     1       1.936   3.631   1.310  1.00  0.00     0.065 C 
ATOM      7  C   UNL     1       1.601   3.860  -0.141  1.00  0.00     0.024 A 
ATOM      8  N   UNL     1       0.359   4.027  -0.634  1.00  0.00    -0.358 N 
ATOM      9  C   UNL     1       0.397   4.214  -2.001  1.00  0.00     0.046 A 
ATOM     10  H   UNL     1      -0.502   4.018  -0.068  1.00  0.00     0.166 HD
ATOM     11  C   UNL     1       1.742   4.162  -2.400  1.00  0.00     0.011 A 
ATOM     12  C   UNL     1      -0.590   4.426  -2.958  1.00  0.00     0.027 A 
ATOM     13  C   UNL     1       2.080   4.320  -3.740  1.00  0.00     0.011 A 
ATOM     14  C   UNL     1      -0.241   4.586  -4.282  1.00  0.00     0.002 A 
ATOM     15  C   UNL     1       1.088   4.528  -4.674  1.00  0.00     0.001 A 
ENDBRANCH   3   5
ENDBRANCH   1   3
BRANCH   1  16
ATOM     16  S   UNL     1       6.298   4.452   0.088  1.00  0.00    -0.094 SA
BRANCH  16  17
ATOM     17  C   UNL     1       6.995   6.011   0.520  1.00  0.00     0.115 A 
ATOM     18  N   UNL     1       6.362   7.140   0.228  1.00  0.00    -0.186 NA
ATOM     19  C   UNL     1       8.287   6.088   1.218  1.00  0.00     0.069 A 
ATOM     20  C   UNL     1       6.886   8.320   0.553  1.00  0.00     0.346 A 
ATOM     21  C   UNL     1       8.785   7.346   1.525  1.00  0.00     0.030 A 
ATOM     22  N   UNL     1       8.064   8.434   1.185  1.00  0.00    -0.309 N 
ATOM     23  O   UNL     1       6.272   9.334   0.267  1.00  0.00    -0.246 OA
ATOM     24  C   UNL     1      10.106   7.495   2.234  1.00  0.00     0.065 C 
ATOM     25  H   UNL     1       8.425   9.371   1.415  1.00  0.00     0.171 HD
BRANCH  19  26
ATOM     26  C   UNL     1       9.028   4.876   1.571  1.00  0.00     0.164 C 
ATOM     27  O   UNL     1      10.094   4.640   1.042  1.00  0.00    -0.294 OA
ATOM     28  C   UNL     1       8.466   3.921   2.593  1.00  0.00     0.093 C 
ENDBRANCH  19  26
ENDBRANCH  16  17
ENDBRANCH   1  16
TORSDOF 5
