REMARK SMILES CC(C)(C)OC(=O)N[C@@H](Cc1ccccc1)[C@@H](O)C[C@]1(Cc2ccccc2)N=CC([C@H]2c3ccccc3C[C@H]2O)C1=O
REMARK SMILES IDX 17 1 9 2 8 3 6 4 7 5 5 7 2 8 1 9 3 10 4 11 10 12 11 13 16 14
REMARK SMILES IDX 12 15 15 16 13 17 14 18 19 19 20 20 41 21 28 22 42 23 30 24
REMARK SMILES IDX 29 25 21 26 22 27 27 28 23 29 26 30 24 31 25 32 31 33 39 34
REMARK SMILES IDX 32 35 38 36 37 37 33 38 36 39 34 40 35 41 40 42 18 44
REMARK H PARENT 8 6 40 43 18 45
REMARK Flexibility Score: inf
ROOT
ATOM      1  C   UNL     1      -0.019   1.526   0.010  1.00  0.00     0.140 C 
ENDROOT
BRANCH   1   2
ATOM      2  C   UNL     1       0.002  -0.004   0.002  1.00  0.00     0.118 C 
BRANCH   2   3
ATOM      3  N   UNL     1      -1.372  -0.511   0.012  1.00  0.00    -0.316 N 
ATOM      4  C   UNL     1      -1.634  -1.740   0.502  1.00  0.00     0.407 C 
ATOM      5  O   UNL     1      -0.729  -2.426   0.934  1.00  0.00    -0.225 OA
ATOM      6  H   UNL     1      -2.139   0.071  -0.354  1.00  0.00     0.167 HD
BRANCH   4   7
ATOM      7  O   UNL     1      -2.897  -2.205   0.511  1.00  0.00    -0.444 OA
BRANCH   7   8
ATOM      8  C   UNL     1      -3.104  -3.537   1.053  1.00  0.00     0.106 C 
ATOM      9  C   UNL     1      -2.642  -3.572   2.511  1.00  0.00     0.056 C 
ATOM     10  C   UNL     1      -4.591  -3.891   0.980  1.00  0.00     0.056 C 
ATOM     11  C   UNL     1      -2.298  -4.550   0.238  1.00  0.00     0.056 C 
ENDBRANCH   7   8
ENDBRANCH   4   7
ENDBRANCH   2   3
BRANCH   2  12
ATOM     12  C   UNL     1       0.718  -0.497  -1.257  1.00  0.00     0.063 C 
BRANCH  12  13
ATOM     13  C   UNL     1       0.847  -1.998  -1.206  1.00  0.00    -0.046 A 
ATOM     14  C   UNL     1      -0.148  -2.796  -1.739  1.00  0.00     0.004 A 
ATOM     15  C   UNL     1       1.963  -2.577  -0.631  1.00  0.00     0.004 A 
ATOM     16  C   UNL     1      -0.029  -4.172  -1.692  1.00  0.00     0.000 A 
ATOM     17  C   UNL     1       2.080  -3.953  -0.580  1.00  0.00     0.000 A 
ATOM     18  C   UNL     1       1.084  -4.751  -1.112  1.00  0.00     0.000 A 
ENDBRANCH  12  13
ENDBRANCH   2  12
ENDBRANCH   1   2
BRANCH   1  19
ATOM     19  C   UNL     1      -0.735   2.019   1.269  1.00  0.00     0.073 C 
BRANCH  19  20
ATOM     20  C   UNL     1      -0.647   3.545   1.341  1.00  0.00     0.126 C 
ATOM     21  C   UNL     1       0.800   3.994   1.328  1.00  0.00     0.169 C 
ATOM     22  N   UNL     1      -1.226   4.152   0.132  1.00  0.00    -0.282 NA
ATOM     23  O   UNL     1       1.662   3.730   2.143  1.00  0.00    -0.296 OA
ATOM     24  C   UNL     1       0.932   4.782   0.170  1.00  0.00     0.110 C 
ATOM     25  C   UNL     1      -0.241   4.852  -0.488  1.00  0.00     0.091 C 
BRANCH  20  26
ATOM     26  C   UNL     1      -1.357   4.063   2.593  1.00  0.00     0.074 C 
BRANCH  26  27
ATOM     27  C   UNL     1      -1.364   5.570   2.580  1.00  0.00    -0.045 A 
ATOM     28  C   UNL     1      -2.411   6.251   1.986  1.00  0.00     0.004 A 
ATOM     29  C   UNL     1      -0.327   6.271   3.166  1.00  0.00     0.004 A 
ATOM     30  C   UNL     1      -2.417   7.633   1.974  1.00  0.00     0.000 A 
ATOM     31  C   UNL     1      -0.332   7.654   3.150  1.00  0.00     0.000 A 
ATOM     32  C   UNL     1      -1.378   8.334   2.555  1.00  0.00     0.000 A 
ENDBRANCH  26  27
ENDBRANCH  20  26
BRANCH  24  33
ATOM     33  C   UNL     1       2.206   5.454  -0.272  1.00  0.00     0.064 C 
ATOM     34  C   UNL     1       3.321   4.406  -0.478  1.00  0.00     0.127 C 
ATOM     35  C   UNL     1       2.720   6.373   0.816  1.00  0.00    -0.038 A 
ATOM     36  C   UNL     1       4.583   5.172  -0.027  1.00  0.00     0.068 C 
ATOM     37  C   UNL     1       4.086   6.209   0.957  1.00  0.00    -0.042 A 
ATOM     38  C   UNL     1       2.045   7.277   1.619  1.00  0.00     0.004 A 
ATOM     39  C   UNL     1       4.775   6.952   1.902  1.00  0.00     0.004 A 
ATOM     40  C   UNL     1       2.732   8.019   2.559  1.00  0.00     0.000 A 
ATOM     41  C   UNL     1       4.098   7.858   2.701  1.00  0.00     0.000 A 
BRANCH  34  42
ATOM     42  O   UNL     1       3.098   3.259   0.344  1.00  0.00    -0.392 OA
ATOM     43  H   UNL     1       2.222   2.861   0.109  1.00  0.00     0.210 HD
ENDBRANCH  34  42
ENDBRANCH  24  33
ENDBRANCH  19  20
ENDBRANCH   1  19
BRANCH   1  44
ATOM     44  O   UNL     1      -0.710   1.999  -1.147  1.00  0.00    -0.391 OA
ATOM     45  H   UNL     1      -1.639   1.657  -1.141  1.00  0.00     0.211 HD
ENDBRANCH   1  44
TORSDOF 13
