REMARK SMILES Cc1nc([C@H](Cc2ccc(O)cc2)NC(=O)c2ccc3c(c2)nc(-c2ccoc2)n3C2CCCCC2)cs1
REMARK SMILES IDX 5 1 4 2 1 3 2 4 38 5 3 6 37 7 6 8 7 9 13 10 8 11 12 12 9 13
REMARK SMILES IDX 10 14 11 15 14 17 15 18 16 20 17 21 22 22 18 23 21 24 19 25
REMARK SMILES IDX 20 26 23 27 30 28 24 29 31 30 36 31 32 32 35 33 33 34 34 35
REMARK SMILES IDX 25 36 29 37 26 38 28 39 27 40
REMARK H PARENT 11 16 14 19
REMARK Flexibility Score: inf
ROOT
ATOM      1  C   UNL     1      -5.040  -4.840  -5.433  1.00  0.00     0.136 C 
ENDROOT
BRANCH   1   2
ATOM      2  C   UNL     1      -4.757  -6.284  -5.108  1.00  0.00     0.074 A 
ATOM      3  C   UNL     1      -5.667  -9.749  -6.166  1.00  0.00     0.079 C 
ATOM      4  C   UNL     1      -5.101  -8.515  -5.510  1.00  0.00     0.090 A 
ATOM      5  S   UNL     1      -3.967  -8.400  -4.199  1.00  0.00    -0.127 S 
ATOM      6  N   UNL     1      -5.343  -7.253  -5.779  1.00  0.00    -0.244 NA
ATOM      7  C   UNL     1      -3.896  -6.616  -4.113  1.00  0.00     0.092 A 
ENDBRANCH   1   2
BRANCH   1   8
ATOM      8  C   UNL     1      -4.761  -4.587  -6.916  1.00  0.00     0.067 C 
BRANCH   8   9
ATOM      9  C   UNL     1      -5.161  -3.177  -7.269  1.00  0.00    -0.045 A 
ATOM     10  C   UNL     1      -4.241  -2.151  -7.158  1.00  0.00     0.007 A 
ATOM     11  C   UNL     1      -6.445  -2.913  -7.708  1.00  0.00     0.007 A 
ATOM     12  C   UNL     1      -4.604  -0.858  -7.480  1.00  0.00     0.046 A 
ATOM     13  C   UNL     1      -6.815  -1.620  -8.027  1.00  0.00     0.046 A 
ATOM     14  C   UNL     1      -5.894  -0.589  -7.916  1.00  0.00     0.115 A 
BRANCH  14  15
ATOM     15  O   UNL     1      -6.254   0.682  -8.234  1.00  0.00    -0.508 OA
ATOM     16  H   UNL     1      -7.038   0.875  -7.662  1.00  0.00     0.293 HD
ENDBRANCH  14  15
ENDBRANCH   8   9
ENDBRANCH   1   8
BRANCH   1  17
ATOM     17  N   UNL     1      -4.179  -3.978  -4.620  1.00  0.00    -0.343 N 
ATOM     18  C   UNL     1      -4.553  -3.636  -3.372  1.00  0.00     0.251 C 
ATOM     19  H   UNL     1      -3.287  -3.633  -5.003  1.00  0.00     0.164 HD
ATOM     20  O   UNL     1      -5.606  -4.043  -2.920  1.00  0.00    -0.269 OA
BRANCH  18  21
ATOM     21  C   UNL     1      -3.685  -2.767  -2.552  1.00  0.00     0.042 A 
ATOM     22  C   UNL     1      -4.074  -2.415  -1.263  1.00  0.00     0.044 A 
ATOM     23  C   UNL     1      -2.472  -2.300  -3.074  1.00  0.00     0.016 A 
ATOM     24  C   UNL     1      -3.247  -1.594  -0.496  1.00  0.00     0.090 A 
ATOM     25  C   UNL     1      -1.660  -1.496  -2.327  1.00  0.00     0.029 A 
ATOM     26  C   UNL     1      -2.035  -1.129  -1.040  1.00  0.00     0.069 A 
ATOM     27  N   UNL     1      -3.344  -1.089   0.759  1.00  0.00    -0.228 NA
ATOM     28  N   UNL     1      -1.445  -0.357  -0.060  1.00  0.00    -0.321 N 
ATOM     29  C   UNL     1      -2.286  -0.360   1.022  1.00  0.00     0.144 A 
BRANCH  28  30
ATOM     30  C   UNL     1      -0.161   0.341  -0.159  1.00  0.00     0.089 C 
ATOM     31  C   UNL     1      -0.159   1.230  -1.405  1.00  0.00     0.025 C 
ATOM     32  C   UNL     1       0.970  -0.685  -0.263  1.00  0.00     0.025 C 
ATOM     33  C   UNL     1       1.182   1.958  -1.509  1.00  0.00     0.002 C 
ATOM     34  C   UNL     1       2.311   0.044  -0.367  1.00  0.00     0.002 C 
ATOM     35  C   UNL     1       2.313   0.933  -1.612  1.00  0.00     0.000 C 
ENDBRANCH  28  30
BRANCH  29  36
ATOM     36  C   UNL     1      -2.038   0.352   2.292  1.00  0.00     0.056 A 
ATOM     37  C   UNL     1      -2.957   0.691   3.238  1.00  0.00     0.206 A 
ATOM     38  C   UNL     1      -0.748   0.835   2.802  1.00  0.00     0.054 A 
ATOM     39  O   UNL     1      -2.325   1.325   4.234  1.00  0.00    -0.472 OA
ATOM     40  C   UNL     1      -1.011   1.419   3.982  1.00  0.00     0.195 A 
ENDBRANCH  29  36
ENDBRANCH  18  21
ENDBRANCH   1  17
TORSDOF 8
