REMARK SMILES Cc1ccc(C)c(C[NH2+][C@@H]2C[C@@H](C(=O)N3CCN(c4cccc(C(F)(F)F)c4)CC3)N(C(C)C)C2)c1
REMARK SMILES IDX 10 1 11 2 12 3 31 4 35 5 9 6 8 9 7 10 1 11 2 12 36 13 3 14
REMARK SMILES IDX 4 15 5 16 6 17 32 18 33 19 34 20 13 21 14 22 15 23 30 24
REMARK SMILES IDX 16 25 29 26 17 27 18 28 19 29 28 30 20 31 23 32 21 33 22 34
REMARK SMILES IDX 24 35 25 36 26 37 27 38
REMARK H PARENT 9 7 9 8
REMARK Flexibility Score: inf
ROOT
ATOM      1  C   UNL     1       4.119   0.255  -1.188  1.00  0.00     0.199 C 
ATOM      2  C   UNL     1       4.456   0.402  -2.689  1.00  0.00     0.095 C 
ATOM      3  C   UNL     1       5.030  -0.964  -3.109  1.00  0.00     0.153 C 
ATOM      4  N   UNL     1       5.043  -1.818  -1.901  1.00  0.00    -0.283 NA
ATOM      5  C   UNL     1       3.982  -1.278  -1.012  1.00  0.00     0.150 C 
ENDROOT
BRANCH   1   6
ATOM      6  N   UNL     1       2.852   0.929  -0.871  1.00  0.00    -0.339 N 
ATOM      7  H   UNL     1       2.760   1.770  -1.458  1.00  0.00     0.346 HD
ATOM      8  H   UNL     1       2.069   0.293  -1.076  1.00  0.00     0.346 HD
BRANCH   6   9
ATOM      9  C   UNL     1       2.803   1.318   0.545  1.00  0.00     0.297 C 
BRANCH   9  10
ATOM     10  C   UNL     1       1.493   2.005   0.832  1.00  0.00     0.009 A 
ATOM     11  C   UNL     1       0.170   5.519   1.224  1.00  0.00     0.044 C 
ATOM     12  C   UNL     1       0.233   4.015   1.157  1.00  0.00    -0.051 A 
ATOM     13  C   UNL     1       1.435   3.385   0.894  1.00  0.00     0.013 A 
ATOM     14  C   UNL     1      -0.911   3.265   1.358  1.00  0.00     0.004 A 
ATOM     15  C   UNL     1      -0.854   1.886   1.292  1.00  0.00     0.004 A 
ATOM     16  C   UNL     1       0.349   1.256   1.034  1.00  0.00    -0.042 A 
ATOM     17  C   UNL     1       0.413  -0.248   0.966  1.00  0.00     0.045 C 
ENDBRANCH   9  10
ENDBRANCH   6   9
ENDBRANCH   1   6
BRANCH   4  18
ATOM     18  C   UNL     1       4.777  -3.221  -2.246  1.00  0.00     0.051 C 
ATOM     19  C   UNL     1       5.928  -3.764  -3.095  1.00  0.00     0.024 C 
ATOM     20  C   UNL     1       4.655  -4.047  -0.964  1.00  0.00     0.024 C 
ENDBRANCH   4  18
BRANCH   3  21
ATOM     21  C   UNL     1       6.433  -0.792  -3.631  1.00  0.00     0.240 C 
ATOM     22  O   UNL     1       7.359  -1.339  -3.072  1.00  0.00    -0.273 OA
ATOM     23  N   UNL     1       6.658  -0.031  -4.720  1.00  0.00    -0.338 N 
ATOM     24  C   UNL     1       8.019   0.149  -5.247  1.00  0.00     0.141 C 
ATOM     25  C   UNL     1       5.548   0.636  -5.418  1.00  0.00     0.141 C 
ATOM     26  C   UNL     1       8.279   1.650  -5.421  1.00  0.00     0.138 C 
ATOM     27  C   UNL     1       5.906   2.122  -5.582  1.00  0.00     0.138 C 
ATOM     28  N   UNL     1       7.212   2.236  -6.244  1.00  0.00    -0.368 N 
BRANCH  28  29
ATOM     29  C   UNL     1       7.498   3.565  -6.562  1.00  0.00     0.037 A 
ATOM     30  C   UNL     1       6.611   4.302  -7.336  1.00  0.00     0.039 A 
ATOM     31  C   UNL     1       8.668   4.155  -6.099  1.00  0.00     0.026 A 
ATOM     32  C   UNL     1       6.897   5.617  -7.648  1.00  0.00     0.058 A 
ATOM     33  C   UNL     1       8.950   5.469  -6.419  1.00  0.00     0.003 A 
ATOM     34  C   UNL     1       8.064   6.200  -7.190  1.00  0.00     0.013 A 
BRANCH  32  35
ATOM     35  C   UNL     1       5.935   6.417  -8.488  1.00  0.00     0.416 C 
ATOM     36  F   UNL     1       5.013   7.060  -7.655  1.00  0.00    -0.166 F 
ATOM     37  F   UNL     1       6.643   7.373  -9.225  1.00  0.00    -0.166 F 
ATOM     38  F   UNL     1       5.257   5.562  -9.363  1.00  0.00    -0.166 F 
ENDBRANCH  32  35
ENDBRANCH  28  29
ENDBRANCH   3  21
TORSDOF 7
