REMARK SMILES N#Cc1ccc(CCC(=O)NNC(=O)CCN2CC[NH+](C(c3ccccc3)c3ccccc3)CC2)cc1
REMARK SMILES IDX 13 1 14 2 12 3 15 5 16 6 17 7 20 8 34 9 19 10 35 12 18 13
REMARK SMILES IDX 21 14 22 15 25 16 26 17 24 18 27 19 23 20 28 21 33 22 29 23
REMARK SMILES IDX 32 24 30 25 31 26 11 27 9 28 10 30 8 31 7 32 6 33 36 34 5 35
REMARK SMILES IDX 37 36 4 37 3 38 2 39 1 40
REMARK H PARENT 12 4 20 11 11 29
REMARK Flexibility Score: inf
ROOT
ATOM      1  C   UNL     1       5.608  -1.076   2.347  1.00  0.00     0.239 C 
ATOM      2  O   UNL     1       5.162  -1.659   3.313  1.00  0.00    -0.273 OA
ATOM      3  N   UNL     1       6.941  -0.959   2.186  1.00  0.00    -0.268 N 
ATOM      4  H   UNL     1       7.319  -0.464   1.366  1.00  0.00     0.191 HD
ENDROOT
BRANCH   1   5
ATOM      5  C   UNL     1       4.671  -0.483   1.326  1.00  0.00     0.117 C 
BRANCH   5   6
ATOM      6  C   UNL     1       3.224  -0.754   1.744  1.00  0.00     0.095 C 
BRANCH   6   7
ATOM      7  N   UNL     1       2.311  -0.176   0.749  1.00  0.00    -0.292 NA
ATOM      8  N   UNL     1       0.113   1.409  -0.124  1.00  0.00    -0.323 N 
ATOM      9  C   UNL     1       0.024  -0.058  -0.117  1.00  0.00     0.278 C 
ATOM     10  C   UNL     1       1.496   1.849  -0.359  1.00  0.00     0.278 C 
ATOM     11  H   UNL     1      -0.175   1.750   0.805  1.00  0.00     0.349 HD
ATOM     12  C   UNL     1       0.929  -0.616   0.984  1.00  0.00     0.146 C 
ATOM     13  C   UNL     1       2.400   1.291   0.742  1.00  0.00     0.146 C 
BRANCH   8  14
ATOM     14  C   UNL     1      -0.800   1.987  -1.118  1.00  0.00     0.246 C 
BRANCH  14  15
ATOM     15  C   UNL     1      -2.209   1.536  -0.829  1.00  0.00     0.014 A 
ATOM     16  C   UNL     1      -4.793   0.709  -0.299  1.00  0.00     0.000 A 
ATOM     17  C   UNL     1      -3.976   1.129   0.734  1.00  0.00     0.001 A 
ATOM     18  C   UNL     1      -4.317   0.701  -1.597  1.00  0.00     0.001 A 
ATOM     19  C   UNL     1      -2.682   1.539   0.469  1.00  0.00     0.010 A 
ATOM     20  C   UNL     1      -3.025   1.115  -1.862  1.00  0.00     0.010 A 
ENDBRANCH  14  15
BRANCH  14  21
ATOM     21  C   UNL     1      -0.730   3.491  -1.050  1.00  0.00     0.014 A 
ATOM     22  C   UNL     1      -0.665   4.234  -2.215  1.00  0.00     0.010 A 
ATOM     23  C   UNL     1      -0.737   4.129   0.176  1.00  0.00     0.010 A 
ATOM     24  C   UNL     1      -0.601   5.613  -2.152  1.00  0.00     0.001 A 
ATOM     25  C   UNL     1      -0.668   5.508   0.239  1.00  0.00     0.001 A 
ATOM     26  C   UNL     1      -0.602   6.250  -0.925  1.00  0.00     0.000 A 
ENDBRANCH  14  21
ENDBRANCH   8  14
ENDBRANCH   6   7
ENDBRANCH   5   6
ENDBRANCH   1   5
BRANCH   3  27
ATOM     27  N   UNL     1       7.812  -1.510   3.135  1.00  0.00    -0.268 N 
ATOM     28  C   UNL     1       9.145  -1.393   2.974  1.00  0.00     0.238 C 
ATOM     29  H   UNL     1       7.434  -2.005   3.955  1.00  0.00     0.191 HD
ATOM     30  O   UNL     1       9.591  -0.811   2.009  1.00  0.00    -0.273 OA
BRANCH  28  31
ATOM     31  C   UNL     1      10.082  -1.987   3.995  1.00  0.00     0.106 C 
BRANCH  31  32
ATOM     32  C   UNL     1      11.529  -1.715   3.578  1.00  0.00     0.045 C 
BRANCH  32  33
ATOM     33  C   UNL     1      12.465  -2.308   4.599  1.00  0.00    -0.047 A 
ATOM     34  C   UNL     1      12.910  -3.610   4.451  1.00  0.00     0.005 A 
ATOM     35  C   UNL     1      12.882  -1.546   5.676  1.00  0.00     0.005 A 
ATOM     36  C   UNL     1      13.768  -4.159   5.381  1.00  0.00     0.020 A 
ATOM     37  C   UNL     1      13.735  -2.085   6.617  1.00  0.00     0.020 A 
ATOM     38  C   UNL     1      14.188  -3.398   6.474  1.00  0.00     0.052 A 
BRANCH  38  39
ATOM     39  C   UNL     1      15.078  -3.962   7.443  1.00  0.00     0.099 C 
ATOM     40  N   UNL     1      15.784  -4.409   8.213  1.00  0.00    -0.192 NA
ENDBRANCH  38  39
ENDBRANCH  32  33
ENDBRANCH  31  32
ENDBRANCH  28  31
ENDBRANCH   3  27
TORSDOF 11
