REMARK SMILES Cc1ccc([C@]2(c3ccccc3)[N-]C(=O)N(CC(=O)N[C@]34C[C@H]5C[C@H](C[C@H](C5)C3)C4)C2=O)cc1C
REMARK SMILES IDX 17 1 16 2 6 3 13 4 31 5 14 6 32 7 15 8 5 9 1 10 2 11 34 12
REMARK SMILES IDX 3 13 33 14 35 15 4 16 7 17 12 18 8 19 11 20 9 21 10 22 18 23
REMARK SMILES IDX 19 24 20 25 21 27 22 28 29 29 30 30 23 31 27 32 25 33 24 34
REMARK SMILES IDX 28 35 26 36
REMARK H PARENT 20 26
REMARK Flexibility Score: inf
ROOT
ATOM      1  C   UNL     1       2.289  -2.185   1.953  1.00  0.00     0.112 C 
ENDROOT
BRANCH   1   2
ATOM      2  N   UNL     1       1.564  -1.335   1.006  1.00  0.00    -0.372 N 
ATOM      3  C   UNL     1       0.002  -0.004   0.002  1.00  0.00     0.088 C 
ATOM      4  N   UNL     1       1.164  -0.212  -0.879  1.00  0.00    -0.409 NA
ATOM      5  C   UNL     1       0.354  -0.793   1.248  1.00  0.00     0.165 C 
ATOM      6  C   UNL     1       2.021  -1.001  -0.206  1.00  0.00     0.163 C 
ATOM      7  O   UNL     1      -0.314  -0.912   2.252  1.00  0.00    -0.298 OA
ATOM      8  O   UNL     1       3.091  -1.369  -0.650  1.00  0.00    -0.298 OA
BRANCH   3   9
ATOM      9  C   UNL     1      -1.253  -0.546  -0.632  1.00  0.00    -0.030 A 
ATOM     10  C   UNL     1      -4.809  -2.084  -2.431  1.00  0.00     0.044 C 
ATOM     11  C   UNL     1      -3.554  -1.542  -1.796  1.00  0.00    -0.048 A 
ATOM     12  C   UNL     1      -3.546  -1.210  -0.455  1.00  0.00    -0.048 A 
ATOM     13  C   UNL     1      -2.411  -1.377  -2.556  1.00  0.00     0.004 A 
ATOM     14  C   UNL     1      -2.394  -0.716   0.128  1.00  0.00     0.008 A 
ATOM     15  C   UNL     1      -4.792  -1.390   0.374  1.00  0.00     0.044 C 
ATOM     16  C   UNL     1      -1.260  -0.879  -1.974  1.00  0.00     0.005 A 
ENDBRANCH   3   9
BRANCH   3  17
ATOM     17  C   UNL     1      -0.160   1.458   0.329  1.00  0.00    -0.030 A 
ATOM     18  C   UNL     1       0.459   2.414  -0.454  1.00  0.00     0.005 A 
ATOM     19  C   UNL     1      -0.933   1.843   1.408  1.00  0.00     0.005 A 
ATOM     20  C   UNL     1       0.310   3.756  -0.154  1.00  0.00     0.000 A 
ATOM     21  C   UNL     1      -1.078   3.184   1.711  1.00  0.00     0.000 A 
ATOM     22  C   UNL     1      -0.458   4.140   0.929  1.00  0.00     0.000 A 
ENDBRANCH   3  17
ENDBRANCH   1   2
BRANCH   1  23
ATOM     23  C   UNL     1       1.913  -3.626   1.725  1.00  0.00     0.220 C 
ATOM     24  O   UNL     1       1.117  -3.915   0.857  1.00  0.00    -0.275 OA
ATOM     25  N   UNL     1       2.461  -4.594   2.486  1.00  0.00    -0.351 N 
ATOM     26  H   UNL     1       3.136  -4.349   3.224  1.00  0.00     0.164 HD
BRANCH  25  27
ATOM     27  C   UNL     1       2.095  -5.995   2.264  1.00  0.00     0.041 C 
ATOM     28  C   UNL     1       2.852  -6.883   3.254  1.00  0.00     0.032 C 
ATOM     29  C   UNL     1       2.461  -6.398   0.834  1.00  0.00     0.032 C 
ATOM     30  C   UNL     1       0.589  -6.169   2.473  1.00  0.00     0.032 C 
ATOM     31  C   UNL     1       2.470  -8.347   3.022  1.00  0.00    -0.008 C 
ATOM     32  C   UNL     1       2.079  -7.861   0.603  1.00  0.00    -0.008 C 
ATOM     33  C   UNL     1       0.207  -7.632   2.241  1.00  0.00    -0.008 C 
ATOM     34  C   UNL     1       0.964  -8.520   3.231  1.00  0.00     0.007 C 
ATOM     35  C   UNL     1       2.836  -8.749   1.592  1.00  0.00     0.007 C 
ATOM     36  C   UNL     1       0.573  -8.034   0.811  1.00  0.00     0.007 C 
ENDBRANCH  25  27
ENDBRANCH   1  23
TORSDOF 5
