REMARK SMILES CCc1ccc2nc(N3C(=O)C(=O)/C(=C(/[O-])c4ccc(F)cc4)[C@H]3c3ccc(O)cc3)sc2c1
REMARK SMILES IDX 9 1 24 2 14 3 15 4 16 5 12 6 13 7 10 8 11 9 8 10 3 11 34 12
REMARK SMILES IDX 4 13 33 14 5 15 6 16 32 17 7 18 2 19 1 20 25 21 31 22 26 23
REMARK SMILES IDX 30 24 27 25 28 26 29 27 17 29 23 30 18 31 22 32 19 33 20 34
REMARK SMILES IDX 21 35
REMARK H PARENT 29 28
REMARK Flexibility Score: inf
ROOT
ATOM      1  N   UNL     1       0.054   1.318  -0.762  1.00  0.00    -0.269 N 
ATOM      2  C   UNL     1       1.373   1.810  -0.356  1.00  0.00     0.157 C 
ATOM      3  C   UNL     1       2.298   0.615  -0.351  1.00  0.00     0.026 C 
ATOM      4  C   UNL     1       3.640   0.606  -0.029  1.00  0.00    -0.092 C 
ATOM      5  O   UNL     1       4.288   1.768   0.197  1.00  0.00    -0.872 OA
ATOM      6  C   UNL     1       1.516  -0.485  -0.738  1.00  0.00     0.248 C 
ATOM      7  O   UNL     1       1.905  -1.633  -0.854  1.00  0.00    -0.283 OA
ATOM      8  C   UNL     1       0.130  -0.005  -0.984  1.00  0.00     0.301 C 
ATOM      9  O   UNL     1      -0.797  -0.706  -1.335  1.00  0.00    -0.265 OA
ENDROOT
BRANCH   1  10
ATOM     10  C   UNL     1      -1.085   2.092  -0.901  1.00  0.00     0.194 A 
ATOM     11  C   UNL     1      -5.004   5.030  -1.328  1.00  0.00    -0.047 A 
ATOM     12  C   UNL     1      -4.753   3.682  -1.511  1.00  0.00     0.025 A 
ATOM     13  C   UNL     1      -3.971   5.864  -0.925  1.00  0.00     0.006 A 
ATOM     14  C   UNL     1      -3.491   3.192  -1.291  1.00  0.00     0.057 A 
ATOM     15  C   UNL     1      -2.707   5.384  -0.702  1.00  0.00     0.030 A 
ATOM     16  C   UNL     1      -2.415   4.011  -0.879  1.00  0.00     0.084 A 
ATOM     17  S   UNL     1      -2.726   1.592  -1.402  1.00  0.00    -0.096 S 
ATOM     18  N   UNL     1      -1.233   3.381  -0.704  1.00  0.00    -0.220 NA
BRANCH  11  19
ATOM     19  C   UNL     1      -6.384   5.587  -1.566  1.00  0.00     0.032 C 
ATOM     20  C   UNL     1      -6.513   6.025  -3.026  1.00  0.00     0.009 C 
ENDBRANCH  11  19
ENDBRANCH   1  10
BRANCH   2  21
ATOM     21  C   UNL     1       1.866   2.839  -1.340  1.00  0.00    -0.020 A 
ATOM     22  C   UNL     1       2.553   3.951  -0.889  1.00  0.00     0.010 A 
ATOM     23  C   UNL     1       1.635   2.667  -2.692  1.00  0.00     0.010 A 
ATOM     24  C   UNL     1       3.006   4.896  -1.790  1.00  0.00     0.046 A 
ATOM     25  C   UNL     1       2.081   3.612  -3.596  1.00  0.00     0.046 A 
ATOM     26  C   UNL     1       2.771   4.729  -3.146  1.00  0.00     0.115 A 
BRANCH  26  27
ATOM     27  O   UNL     1       3.216   5.657  -4.034  1.00  0.00    -0.508 OA
ATOM     28  H   UNL     1       2.408   5.943  -4.530  1.00  0.00     0.293 HD
ENDBRANCH  26  27
ENDBRANCH   2  21
BRANCH   4  29
ATOM     29  C   UNL     1       4.365  -0.672   0.069  1.00  0.00    -0.033 A 
ATOM     30  C   UNL     1       5.567  -0.853  -0.625  1.00  0.00     0.010 A 
ATOM     31  C   UNL     1       3.858  -1.709   0.860  1.00  0.00     0.010 A 
ATOM     32  C   UNL     1       6.241  -2.051  -0.529  1.00  0.00     0.040 A 
ATOM     33  C   UNL     1       4.539  -2.904   0.944  1.00  0.00     0.040 A 
ATOM     34  C   UNL     1       5.730  -3.076   0.254  1.00  0.00     0.123 A 
ATOM     35  F   UNL     1       6.396  -4.248   0.344  1.00  0.00    -0.207 F 
ENDBRANCH   4  29
TORSDOF 5
