REMARK SMILES CC(C)[C@@H](NC(=O)c1ccccc1Br)C(=O)NCC(C)(C)[N@@H+]1CCc2ccccc2C1
REMARK SMILES IDX 15 1 16 2 17 3 4 5 2 6 1 7 3 8 5 9 6 10 7 12 8 13 13 14 9 15
REMARK SMILES IDX 12 16 14 17 10 18 11 19 18 20 19 21 20 22 21 23 22 24 31 25
REMARK SMILES IDX 23 26 30 28 24 29 25 30 29 31 26 32 28 33 27 34
REMARK H PARENT 17 4 5 11 22 27
REMARK Flexibility Score: inf
ROOT
ATOM      1  C   UNL     1       0.013   1.134   0.025  1.00  0.00     0.243 C 
ATOM      2  O   UNL     1       0.041  -0.001   0.450  1.00  0.00    -0.273 OA
ATOM      3  N   UNL     1      -1.149   1.666  -0.402  1.00  0.00    -0.348 N 
ATOM      4  H   UNL     1      -1.161   2.601  -0.834  1.00  0.00     0.163 HD
ENDROOT
BRANCH   1   5
ATOM      5  C   UNL     1       1.280   1.949  -0.030  1.00  0.00     0.174 C 
BRANCH   5   6
ATOM      6  C   UNL     1       1.333   2.891   1.174  1.00  0.00     0.015 C 
ATOM      7  C   UNL     1       1.452   2.070   2.459  1.00  0.00     0.010 C 
ATOM      8  C   UNL     1       2.546   3.815   1.045  1.00  0.00     0.010 C 
ENDBRANCH   5   6
BRANCH   5   9
ATOM      9  N   UNL     1       2.438   1.054  -0.002  1.00  0.00    -0.340 N 
ATOM     10  C   UNL     1       3.612   1.453  -0.530  1.00  0.00     0.253 C 
ATOM     11  H   UNL     1       2.356   0.118   0.422  1.00  0.00     0.164 HD
ATOM     12  O   UNL     1       3.709   2.557  -1.031  1.00  0.00    -0.269 OA
BRANCH  10  13
ATOM     13  C   UNL     1       4.781   0.549  -0.501  1.00  0.00     0.054 A 
ATOM     14  C   UNL     1       5.999   0.960  -1.048  1.00  0.00     0.030 A 
ATOM     15  C   UNL     1       4.675  -0.717   0.077  1.00  0.00     0.015 A 
ATOM     16  C   UNL     1       7.087   0.110  -1.017  1.00  0.00     0.016 A 
ATOM     17  Br  UNL     1       6.158   2.676  -1.828  1.00  0.00    -0.050 Br
ATOM     18  C   UNL     1       5.768  -1.557   0.097  1.00  0.00     0.001 A 
ATOM     19  C   UNL     1       6.973  -1.144  -0.447  1.00  0.00     0.001 A 
ENDBRANCH  10  13
ENDBRANCH   5   9
ENDBRANCH   1   5
BRANCH   3  20
ATOM     20  C   UNL     1      -2.397   0.913  -0.252  1.00  0.00     0.183 C 
BRANCH  20  21
ATOM     21  C   UNL     1      -3.559   1.736  -0.813  1.00  0.00     0.110 C 
ATOM     22  C   UNL     1      -4.863   0.950  -0.656  1.00  0.00     0.081 C 
ATOM     23  C   UNL     1      -3.665   3.056  -0.048  1.00  0.00     0.081 C 
BRANCH  21  24
ATOM     24  N   UNL     1      -3.322   2.011  -2.236  1.00  0.00    -0.325 N 
ATOM     25  C   UNL     1      -3.145   0.766  -2.990  1.00  0.00     0.299 C 
ATOM     26  C   UNL     1      -4.422   2.803  -2.811  1.00  0.00     0.267 C 
ATOM     27  H   UNL     1      -2.454   2.561  -2.307  1.00  0.00     0.348 HD
ATOM     28  C   UNL     1      -3.000   1.057  -4.461  1.00  0.00     0.010 A 
ATOM     29  C   UNL     1      -3.963   3.366  -4.156  1.00  0.00     0.097 C 
ATOM     30  C   UNL     1      -3.383   2.264  -5.005  1.00  0.00    -0.034 A 
ATOM     31  C   UNL     1      -2.466   0.073  -5.279  1.00  0.00     0.010 A 
ATOM     32  C   UNL     1      -3.237   2.486  -6.366  1.00  0.00     0.004 A 
ATOM     33  C   UNL     1      -2.319   0.295  -6.634  1.00  0.00     0.001 A 
ATOM     34  C   UNL     1      -2.706   1.505  -7.179  1.00  0.00     0.000 A 
ENDBRANCH  21  24
ENDBRANCH  20  21
ENDBRANCH   3  20
TORSDOF 7
