REMARK SMILES C[C@@H]([NH2+][C@@H](CN1CCOCC1)c1ccccc1)C(=O)Nc1cccc2c1C(=O)c1ccccc1C2=O
REMARK SMILES IDX 3 1 2 4 1 5 18 6 19 7 20 8 21 10 26 11 22 12 25 13 27 14
REMARK SMILES IDX 23 15 24 16 35 17 28 18 29 19 34 20 36 21 30 22 33 23 31 24
REMARK SMILES IDX 32 25 4 26 5 27 6 28 11 29 7 30 10 31 8 32 9 33 12 34 17 35
REMARK SMILES IDX 13 36 16 37 14 38 15 39
REMARK H PARENT 3 2 3 3 20 9
REMARK Flexibility Score: inf
ROOT
ATOM      1  N   UNL     1      -5.736  -1.021  -1.682  1.00  0.00    -0.329 N 
ATOM      2  H   UNL     1      -5.639  -1.851  -1.081  1.00  0.00     0.347 HD
ATOM      3  H   UNL     1      -5.612  -1.306  -2.664  1.00  0.00     0.347 HD
ENDROOT
BRANCH   1   4
ATOM      4  C   UNL     1      -4.699  -0.042  -1.329  1.00  0.00     0.270 C 
ATOM      5  C   UNL     1      -4.406   0.850  -2.537  1.00  0.00     0.086 C 
BRANCH   4   6
ATOM      6  C   UNL     1      -3.442  -0.766  -0.922  1.00  0.00     0.282 C 
ATOM      7  O   UNL     1      -3.412  -1.979  -0.927  1.00  0.00    -0.268 OA
ATOM      8  N   UNL     1      -2.350  -0.067  -0.553  1.00  0.00    -0.320 N 
ATOM      9  H   UNL     1      -2.400   0.958  -0.468  1.00  0.00     0.170 HD
BRANCH   8  10
ATOM     10  C   UNL     1      -1.156  -0.730  -0.289  1.00  0.00     0.053 A 
ATOM     11  C   UNL     1      -0.207  -0.155   0.562  1.00  0.00     0.057 A 
ATOM     12  C   UNL     1      -0.899  -1.971  -0.870  1.00  0.00     0.027 A 
ATOM     13  C   UNL     1       0.998  -0.837   0.822  1.00  0.00     0.036 A 
ATOM     14  C   UNL     1      -0.456   1.156   1.189  1.00  0.00     0.196 C 
ATOM     15  C   UNL     1       0.283  -2.631  -0.610  1.00  0.00     0.003 A 
ATOM     16  C   UNL     1       1.233  -2.073   0.233  1.00  0.00     0.013 A 
ATOM     17  C   UNL     1       2.003  -0.228   1.721  1.00  0.00     0.194 C 
ATOM     18  O   UNL     1      -1.570   1.642   1.178  1.00  0.00    -0.288 OA
ATOM     19  C   UNL     1       0.668   1.878   1.825  1.00  0.00     0.034 A 
ATOM     20  C   UNL     1       1.873   1.199   2.087  1.00  0.00     0.034 A 
ATOM     21  O   UNL     1       2.925  -0.892   2.153  1.00  0.00    -0.289 OA
ATOM     22  C   UNL     1       0.545   3.220   2.168  1.00  0.00     0.013 A 
ATOM     23  C   UNL     1       2.931   1.876   2.685  1.00  0.00     0.013 A 
ATOM     24  C   UNL     1       1.607   3.879   2.763  1.00  0.00     0.001 A 
ATOM     25  C   UNL     1       2.791   3.212   3.019  1.00  0.00     0.001 A 
ENDBRANCH   8  10
ENDBRANCH   4   6
ENDBRANCH   1   4
BRANCH   1  26
ATOM     26  C   UNL     1      -7.079  -0.452  -1.509  1.00  0.00     0.228 C 
BRANCH  26  27
ATOM     27  C   UNL     1      -8.065  -1.183  -2.421  1.00  0.00     0.155 C 
BRANCH  27  28
ATOM     28  N   UNL     1      -7.581  -1.131  -3.807  1.00  0.00    -0.293 NA
ATOM     29  C   UNL     1      -8.369  -2.018  -4.675  1.00  0.00     0.113 C 
ATOM     30  C   UNL     1      -7.598   0.248  -4.319  1.00  0.00     0.113 C 
ATOM     31  C   UNL     1      -7.795  -1.977  -6.093  1.00  0.00     0.175 C 
ATOM     32  C   UNL     1      -7.031   0.265  -5.741  1.00  0.00     0.175 C 
ATOM     33  O   UNL     1      -7.790  -0.626  -6.562  1.00  0.00    -0.379 OA
ENDBRANCH  27  28
ENDBRANCH  26  27
BRANCH  26  34
ATOM     34  C   UNL     1      -7.510  -0.611  -0.073  1.00  0.00     0.011 A 
ATOM     35  C   UNL     1      -8.192   0.411   0.560  1.00  0.00     0.010 A 
ATOM     36  C   UNL     1      -7.227  -1.780   0.608  1.00  0.00     0.010 A 
ATOM     37  C   UNL     1      -8.588   0.265   1.877  1.00  0.00     0.001 A 
ATOM     38  C   UNL     1      -7.619  -1.924   1.926  1.00  0.00     0.001 A 
ATOM     39  C   UNL     1      -8.301  -0.902   2.560  1.00  0.00     0.000 A 
ENDBRANCH  26  34
ENDBRANCH   1  26
TORSDOF 7
