REMARK SMILES CCN(CC)c1ccc(/C=C(\C#N)c2nn(CCO)c(N)c2C#N)c(OCc2ccc(Cl)cc2Cl)c1
REMARK SMILES IDX 10 1 11 2 9 3 6 4 36 5 7 6 25 7 8 8 3 9 2 10 1 11 4 12 5 13
REMARK SMILES IDX 26 14 27 15 28 16 34 17 29 18 33 19 35 20 30 21 31 22 32 23
REMARK SMILES IDX 12 24 13 25 14 26 15 27 22 28 16 29 20 30 23 31 24 32 17 33
REMARK SMILES IDX 18 34 19 35 21 37
REMARK H PARENT 19 36 21 38 21 39
REMARK Flexibility Score: inf
ROOT
ATOM      1  C   UNL     1      -1.741  -3.205  -0.010  1.00  0.00     0.033 C 
ATOM      2  C   UNL     1      -1.512  -4.450  -0.518  1.00  0.00     0.082 C 
ENDROOT
BRANCH   1   3
ATOM      3  C   UNL     1      -3.104  -2.672   0.036  1.00  0.00     0.018 A 
ATOM      4  C   UNL     1      -5.687  -1.670   0.124  1.00  0.00     0.040 A 
ATOM      5  C   UNL     1      -4.621  -0.801  -0.080  1.00  0.00     0.073 A 
ATOM      6  C   UNL     1      -5.460  -3.035   0.288  1.00  0.00     0.027 A 
ATOM      7  C   UNL     1      -3.329  -1.294  -0.130  1.00  0.00     0.129 A 
ATOM      8  C   UNL     1      -4.190  -3.533   0.246  1.00  0.00     0.014 A 
BRANCH   4   9
ATOM      9  N   UNL     1      -6.986  -1.173   0.169  1.00  0.00    -0.372 N 
BRANCH   9  10
ATOM     10  C   UNL     1      -8.112  -2.084   0.390  1.00  0.00     0.113 C 
ATOM     11  C   UNL     1      -8.380  -2.210   1.891  1.00  0.00     0.027 C 
ENDBRANCH   9  10
BRANCH   9  12
ATOM     12  C   UNL     1      -7.228   0.262  -0.003  1.00  0.00     0.113 C 
ATOM     13  C   UNL     1      -7.436   0.569  -1.487  1.00  0.00     0.027 C 
ENDBRANCH   9  12
ENDBRANCH   4   9
BRANCH   7  14
ATOM     14  O   UNL     1      -2.285  -0.451  -0.333  1.00  0.00    -0.488 OA
BRANCH  14  15
ATOM     15  C   UNL     1      -2.592   0.936  -0.493  1.00  0.00     0.267 C 
BRANCH  15  16
ATOM     16  C   UNL     1      -1.317   1.711  -0.707  1.00  0.00     0.008 A 
ATOM     17  C   UNL     1      -1.363   3.082  -0.882  1.00  0.00     0.049 A 
ATOM     18  C   UNL     1      -0.102   1.052  -0.722  1.00  0.00     0.010 A 
ATOM     19  C   UNL     1      -0.193   3.793  -1.084  1.00  0.00     0.041 A 
ATOM     20  Cl  UNL     1      -2.889   3.910  -0.856  1.00  0.00    -0.084 Cl
ATOM     21  C   UNL     1       1.067   1.761  -0.924  1.00  0.00     0.021 A 
ATOM     22  C   UNL     1       1.022   3.132  -1.105  1.00  0.00     0.042 A 
ATOM     23  Cl  UNL     1       2.490   4.023  -1.358  1.00  0.00    -0.084 Cl
ENDBRANCH  15  16
ENDBRANCH  14  15
ENDBRANCH   7  14
ENDBRANCH   1   3
BRANCH   2  24
ATOM     24  C   UNL     1      -2.579  -5.178  -1.138  1.00  0.00     0.102 C 
ATOM     25  N   UNL     1      -3.425  -5.755  -1.629  1.00  0.00    -0.192 NA
ENDBRANCH   2  24
BRANCH   2  26
ATOM     26  C   UNL     1      -0.162  -5.050  -0.428  1.00  0.00     0.123 A 
ATOM     27  N   UNL     1       0.904  -4.496   0.105  1.00  0.00    -0.169 NA
ATOM     28  C   UNL     1       0.240  -6.371  -0.924  1.00  0.00     0.123 A 
ATOM     29  N   UNL     1       1.984  -5.376   0.001  1.00  0.00    -0.246 N 
ATOM     30  C   UNL     1       1.591  -6.506  -0.622  1.00  0.00     0.140 A 
BRANCH  28  31
ATOM     31  C   UNL     1      -0.592  -7.331  -1.587  1.00  0.00     0.105 C 
ATOM     32  N   UNL     1      -1.252  -8.091  -2.112  1.00  0.00    -0.192 NA
ENDBRANCH  28  31
BRANCH  29  33
ATOM     33  C   UNL     1       3.340  -5.109   0.488  1.00  0.00     0.175 C 
BRANCH  33  34
ATOM     34  C   UNL     1       4.155  -4.434  -0.617  1.00  0.00     0.179 C 
BRANCH  34  35
ATOM     35  O   UNL     1       5.477  -4.173  -0.141  1.00  0.00    -0.394 OA
ATOM     36  H   UNL     1       5.911  -5.026   0.114  1.00  0.00     0.210 HD
ENDBRANCH  34  35
ENDBRANCH  33  34
ENDBRANCH  29  33
BRANCH  30  37
ATOM     37  N   UNL     1       2.387  -7.599  -0.907  1.00  0.00    -0.383 N 
ATOM     38  H   UNL     1       1.915  -8.377  -1.390  1.00  0.00     0.158 HD
ATOM     39  H   UNL     1       3.386  -7.649  -0.661  1.00  0.00     0.158 HD
ENDBRANCH  30  37
ENDBRANCH   2  26
TORSDOF 14
