REMARK SMILES O=S(=O)(NCCc1ccccc1)c1ccc2c(c1)[C@@H]1C=CC[C@@H]1[C@H](c1c(O)ccc3ccccc13)N2
REMARK SMILES IDX 2 1 1 2 3 3 4 4 5 6 6 7 7 8 10 9 11 10 9 11 12 12 8 13 13 14
REMARK SMILES IDX 18 15 14 16 17 17 15 18 16 19 19 20 36 21 23 22 20 23 24 24
REMARK SMILES IDX 22 26 21 27 25 28 26 29 35 30 28 31 30 32 34 33 29 34 31 35
REMARK SMILES IDX 33 36 32 37 27 38
REMARK H PARENT 4 5 36 25 27 39
REMARK Flexibility Score: inf
ROOT
ATOM      1  S   UNL     1      -2.626   3.471   1.183  1.00  0.00     0.240 S 
ATOM      2  O   UNL     1      -1.786   4.613   1.077  1.00  0.00    -0.207 OA
ATOM      3  O   UNL     1      -3.866   3.371   0.496  1.00  0.00    -0.207 OA
ENDROOT
BRANCH   1   4
ATOM      4  N   UNL     1      -2.959   3.275   2.793  1.00  0.00    -0.211 NA
ATOM      5  H   UNL     1      -3.931   3.135   3.104  1.00  0.00     0.141 HD
BRANCH   4   6
ATOM      6  C   UNL     1      -1.872   3.301   3.774  1.00  0.00     0.103 C 
BRANCH   6   7
ATOM      7  C   UNL     1      -2.456   3.475   5.178  1.00  0.00     0.052 C 
BRANCH   7   8
ATOM      8  C   UNL     1      -1.337   3.502   6.187  1.00  0.00    -0.047 A 
ATOM      9  C   UNL     1       0.714   3.551   8.040  1.00  0.00     0.000 A 
ATOM     10  C   UNL     1       0.125   2.350   7.693  1.00  0.00     0.000 A 
ATOM     11  C   UNL     1       0.278   4.728   7.461  1.00  0.00     0.000 A 
ATOM     12  C   UNL     1      -0.904   2.326   6.770  1.00  0.00     0.004 A 
ATOM     13  C   UNL     1      -0.748   4.703   6.535  1.00  0.00     0.004 A 
ENDBRANCH   7   8
ENDBRANCH   6   7
ENDBRANCH   4   6
ENDBRANCH   1   4
BRANCH   1  14
ATOM     14  C   UNL     1      -1.659   2.087   0.679  1.00  0.00     0.082 A 
ATOM     15  C   UNL     1      -0.283   2.142   0.767  1.00  0.00     0.028 A 
ATOM     16  C   UNL     1      -2.283   0.948   0.202  1.00  0.00     0.024 A 
ATOM     17  C   UNL     1       0.493   1.061   0.369  1.00  0.00    -0.016 A 
ATOM     18  C   UNL     1      -1.522  -0.134  -0.193  1.00  0.00     0.027 A 
ATOM     19  C   UNL     1      -0.136  -0.077  -0.110  1.00  0.00     0.038 A 
ATOM     20  C   UNL     1       1.981   1.167   0.479  1.00  0.00     0.049 C 
ATOM     21  N   UNL     1       0.621  -1.181  -0.515  1.00  0.00    -0.378 N 
ATOM     22  C   UNL     1       2.696  -0.186   0.295  1.00  0.00     0.031 C 
ATOM     23  C   UNL     1       2.554   2.042  -0.610  1.00  0.00    -0.023 C 
ATOM     24  C   UNL     1       2.036  -0.974  -0.840  1.00  0.00     0.118 C 
ATOM     25  H   UNL     1       0.196  -2.117  -0.584  1.00  0.00     0.161 HD
ATOM     26  C   UNL     1       4.072   0.320  -0.231  1.00  0.00     0.034 C 
ATOM     27  C   UNL     1       3.712   1.572  -1.007  1.00  0.00    -0.030 C 
BRANCH  24  28
ATOM     28  C   UNL     1       2.150  -0.197  -2.127  1.00  0.00     0.024 A 
ATOM     29  C   UNL     1       1.143   0.641  -2.514  1.00  0.00     0.121 A 
ATOM     30  C   UNL     1       3.294  -0.326  -2.931  1.00  0.00    -0.009 A 
ATOM     31  C   UNL     1       1.234   1.369  -3.704  1.00  0.00     0.047 A 
ATOM     32  C   UNL     1       3.381   0.410  -4.140  1.00  0.00    -0.018 A 
ATOM     33  C   UNL     1       4.347  -1.183  -2.568  1.00  0.00     0.009 A 
ATOM     34  C   UNL     1       2.326   1.263  -4.507  1.00  0.00     0.012 A 
ATOM     35  C   UNL     1       4.524   0.275  -4.946  1.00  0.00     0.009 A 
ATOM     36  C   UNL     1       5.438  -1.287  -3.375  1.00  0.00     0.001 A 
ATOM     37  C   UNL     1       5.527  -0.560  -4.560  1.00  0.00     0.001 A 
BRANCH  29  38
ATOM     38  O   UNL     1       0.039   0.768  -1.732  1.00  0.00    -0.508 OA
ATOM     39  H   UNL     1       0.380   1.048  -0.846  1.00  0.00     0.293 HD
ENDBRANCH  29  38
ENDBRANCH  24  28
ENDBRANCH   1  14
TORSDOF 7
