REMARK SMILES Cc1nn(Cc2ccc(F)cc2)c2sc(C(=O)N3Cc4ccccc4C[C@@H]3C(N)=O)cc12
REMARK SMILES IDX 1 1 2 2 32 3 31 4 15 5 14 6 13 7 4 8 3 9 5 10 6 11 12 12
REMARK SMILES IDX 7 13 11 14 8 15 9 16 10 17 16 18 17 19 18 20 27 21 19 22
REMARK SMILES IDX 26 23 20 24 25 25 21 26 24 27 22 28 23 29 28 30 30 31 29 32
REMARK H PARENT 29 33 29 34
REMARK Flexibility Score: inf
ROOT
ATOM      1  C   UNL     1      -5.671   4.943   2.901  1.00  0.00     0.069 C 
ATOM      2  C   UNL     1      -4.452   5.403   2.145  1.00  0.00     0.068 A 
ATOM      3  C   UNL     1      -3.379   4.561   1.706  1.00  0.00     0.035 A 
ATOM      4  C   UNL     1      -3.006   3.208   1.744  1.00  0.00     0.038 A 
ATOM      5  C   UNL     1      -1.835   2.814   1.168  1.00  0.00     0.095 A 
ATOM      6  S   UNL     1      -1.175   4.347   0.536  1.00  0.00    -0.110 S 
ATOM      7  C   UNL     1      -2.485   5.425   1.056  1.00  0.00     0.122 A 
ATOM      8  N   UNL     1      -2.982   6.675   1.105  1.00  0.00    -0.250 N 
ATOM      9  N   UNL     1      -4.204   6.627   1.788  1.00  0.00    -0.176 NA
ENDROOT
BRANCH   8  10
ATOM     10  C   UNL     1      -2.356   7.874   0.542  1.00  0.00     0.181 C 
BRANCH  10  11
ATOM     11  C   UNL     1      -1.464   8.508   1.578  1.00  0.00    -0.026 A 
ATOM     12  C   UNL     1      -0.135   8.137   1.666  1.00  0.00     0.008 A 
ATOM     13  C   UNL     1      -1.974   9.465   2.436  1.00  0.00     0.008 A 
ATOM     14  C   UNL     1       0.684   8.718   2.615  1.00  0.00     0.039 A 
ATOM     15  C   UNL     1      -1.158  10.043   3.390  1.00  0.00     0.039 A 
ATOM     16  C   UNL     1       0.173   9.672   3.479  1.00  0.00     0.123 A 
ATOM     17  F   UNL     1       0.973  10.241   4.408  1.00  0.00    -0.207 F 
ENDBRANCH  10  11
ENDBRANCH   8  10
BRANCH   5  18
ATOM     18  C   UNL     1      -1.258   1.469   1.093  1.00  0.00     0.265 C 
ATOM     19  O   UNL     1      -1.676   0.586   1.819  1.00  0.00    -0.268 OA
BRANCH  18  20
ATOM     20  N   UNL     1      -0.264   1.210   0.221  1.00  0.00    -0.321 N 
ATOM     21  C   UNL     1       0.272  -0.151   0.053  1.00  0.00     0.179 C 
ATOM     22  C   UNL     1       0.327   2.272  -0.600  1.00  0.00     0.156 C 
ATOM     23  C   UNL     1      -0.039  -0.606  -1.373  1.00  0.00     0.071 C 
ATOM     24  C   UNL     1       0.489   1.786  -2.019  1.00  0.00    -0.025 A 
ATOM     25  C   UNL     1       0.328   0.464  -2.368  1.00  0.00    -0.040 A 
ATOM     26  C   UNL     1       0.814   2.723  -2.991  1.00  0.00     0.006 A 
ATOM     27  C   UNL     1       0.504   0.079  -3.692  1.00  0.00     0.004 A 
ATOM     28  C   UNL     1       0.984   2.338  -4.305  1.00  0.00     0.000 A 
ATOM     29  C   UNL     1       0.831   1.010  -4.655  1.00  0.00     0.000 A 
BRANCH  21  30
ATOM     30  C   UNL     1      -0.385  -1.083   1.039  1.00  0.00     0.240 C 
ATOM     31  O   UNL     1       0.268  -1.575   1.935  1.00  0.00    -0.273 OA
ATOM     32  N   UNL     1      -1.696  -1.370   0.924  1.00  0.00    -0.368 N 
ATOM     33  H   UNL     1      -2.251  -0.952   0.163  1.00  0.00     0.159 HD
ATOM     34  H   UNL     1      -2.145  -2.007   1.598  1.00  0.00     0.159 HD
ENDBRANCH  21  30
ENDBRANCH  18  20
ENDBRANCH   5  18
TORSDOF 5
