REMARK SMILES Cc1ccc(C(C)C)c(OCc2nnc(SCC(=O)Nc3ccccc3-c3ccccc3)n2N)c1
REMARK SMILES IDX 12 1 13 2 14 3 15 4 33 5 11 6 10 7 9 8 1 9 2 10 35 11 3 12
REMARK SMILES IDX 4 13 5 14 6 15 7 16 8 17 34 18 16 21 17 22 18 23 19 24 20 25
REMARK SMILES IDX 21 27 26 28 22 29 25 30 23 31 24 32 27 33 32 34 28 35 31 36
REMARK SMILES IDX 29 37 30 38
REMARK H PARENT 34 19 34 20 20 26
REMARK Flexibility Score: inf
ROOT
ATOM      1  C   UNL     1      -0.291   1.762  -2.305  1.00  0.00     0.190 A 
ATOM      2  N   UNL     1      -1.310   2.186  -2.997  1.00  0.00    -0.129 NA
ATOM      3  N   UNL     1      -2.370   2.179  -2.270  1.00  0.00    -0.121 NA
ATOM      4  C   UNL     1      -2.083   1.741  -1.067  1.00  0.00     0.210 A 
ATOM      5  N   UNL     1      -0.747   1.458  -1.052  1.00  0.00    -0.218 N 
ENDROOT
BRANCH   1   6
ATOM      6  C   UNL     1       1.128   1.629  -2.795  1.00  0.00     0.308 C 
BRANCH   6   7
ATOM      7  O   UNL     1       1.320   0.327  -3.350  1.00  0.00    -0.485 OA
BRANCH   7   8
ATOM      8  C   UNL     1       2.555   0.041  -3.841  1.00  0.00     0.123 A 
ATOM      9  C   UNL     1       5.908   1.739  -4.234  1.00  0.00     0.044 C 
ATOM     10  C   UNL     1       4.815   0.703  -4.290  1.00  0.00    -0.047 A 
ATOM     11  C   UNL     1       3.561   0.996  -3.790  1.00  0.00     0.050 A 
ATOM     12  C   UNL     1       5.068  -0.540  -4.840  1.00  0.00     0.004 A 
ATOM     13  C   UNL     1       4.068  -1.492  -4.892  1.00  0.00     0.008 A 
ATOM     14  C   UNL     1       2.813  -1.207  -4.388  1.00  0.00    -0.003 A 
BRANCH  14  15
ATOM     15  C   UNL     1       1.725  -2.248  -4.440  1.00  0.00     0.017 C 
ATOM     16  C   UNL     1       1.464  -2.641  -5.895  1.00  0.00     0.012 C 
ATOM     17  C   UNL     1       2.163  -3.482  -3.648  1.00  0.00     0.012 C 
ENDBRANCH  14  15
ENDBRANCH   7   8
ENDBRANCH   6   7
ENDBRANCH   1   6
BRANCH   5  18
ATOM     18  N   UNL     1      -0.018   0.977  -0.003  1.00  0.00    -0.335 N 
ATOM     19  H   UNL     1       0.984   0.835  -0.199  1.00  0.00     0.178 HD
ATOM     20  H   UNL     1      -0.419   0.765   0.922  1.00  0.00     0.178 HD
ENDBRANCH   5  18
BRANCH   4  21
ATOM     21  S   UNL     1      -3.208   1.555   0.277  1.00  0.00    -0.074 SA
BRANCH  21  22
ATOM     22  C   UNL     1      -4.736   2.120  -0.512  1.00  0.00     0.178 C 
BRANCH  22  23
ATOM     23  C   UNL     1      -5.869   2.046   0.479  1.00  0.00     0.234 C 
ATOM     24  O   UNL     1      -5.664   1.650   1.607  1.00  0.00    -0.274 OA
ATOM     25  N   UNL     1      -7.111   2.420   0.111  1.00  0.00    -0.325 N 
ATOM     26  H   UNL     1      -7.269   2.836  -0.818  1.00  0.00     0.169 HD
BRANCH  25  27
ATOM     27  C   UNL     1      -8.183   2.244   0.990  1.00  0.00     0.049 A 
ATOM     28  C   UNL     1      -9.318   3.055   0.884  1.00  0.00     0.005 A 
ATOM     29  C   UNL     1      -8.123   1.269   1.975  1.00  0.00     0.027 A 
ATOM     30  C   UNL     1     -10.383   2.868   1.762  1.00  0.00     0.011 A 
ATOM     31  C   UNL     1      -9.184   1.096   2.842  1.00  0.00     0.002 A 
ATOM     32  C   UNL     1     -10.310   1.893   2.736  1.00  0.00     0.001 A 
BRANCH  28  33
ATOM     33  C   UNL     1      -9.390   4.105  -0.161  1.00  0.00    -0.016 A 
ATOM     34  C   UNL     1     -10.508   4.193  -0.988  1.00  0.00     0.009 A 
ATOM     35  C   UNL     1      -8.341   5.010  -0.316  1.00  0.00     0.009 A 
ATOM     36  C   UNL     1     -10.569   5.172  -1.959  1.00  0.00     0.001 A 
ATOM     37  C   UNL     1      -8.412   5.982  -1.293  1.00  0.00     0.001 A 
ATOM     38  C   UNL     1      -9.524   6.065  -2.111  1.00  0.00     0.000 A 
ENDBRANCH  28  33
ENDBRANCH  25  27
ENDBRANCH  22  23
ENDBRANCH  21  22
ENDBRANCH   4  21
TORSDOF 10
