REMARK SMILES Cc1cc(SC2C(=O)C[C@@](CCc3ccccc3)(C(C)C)OC2=O)c(C(C)(C)C)cc1N
REMARK SMILES IDX 6 1 7 2 9 3 10 4 22 5 23 6 24 7 8 8 5 9 4 10 1 11 2 12 31 13
REMARK SMILES IDX 3 14 30 15 25 16 32 17 26 20 27 21 28 22 29 23 11 24 12 25
REMARK SMILES IDX 13 26 18 27 14 28 17 29 15 30 16 31 19 32 20 33 21 34
REMARK H PARENT 32 18 32 19
REMARK Flexibility Score: inf
ROOT
ATOM      1  C   UNL     1      -2.640   2.909   5.537  1.00  0.00     0.228 C 
ATOM      2  C   UNL     1      -1.673   2.311   6.259  1.00  0.00     0.161 C 
ATOM      3  C   UNL     1      -1.663   2.379   7.761  1.00  0.00     0.126 C 
ATOM      4  C   UNL     1      -2.510   3.558   8.246  1.00  0.00     0.122 C 
ATOM      5  O   UNL     1      -3.780   3.524   7.578  1.00  0.00    -0.457 OA
ATOM      6  C   UNL     1      -3.707   3.645   6.227  1.00  0.00     0.327 C 
ATOM      7  O   UNL     1      -4.496   4.336   5.612  1.00  0.00    -0.250 OA
ATOM      8  O   UNL     1      -0.689   1.640   5.620  1.00  0.00    -0.298 OA
ENDROOT
BRANCH   1   9
ATOM      9  S   UNL     1      -2.628   2.804   3.779  1.00  0.00    -0.103 SA
BRANCH   9  10
ATOM     10  C   UNL     1      -4.060   1.848   3.400  1.00  0.00     0.013 A 
ATOM     11  C   UNL     1      -6.738  -0.086   5.238  1.00  0.00     0.046 C 
ATOM     12  C   UNL     1      -5.928   0.530   4.127  1.00  0.00    -0.027 A 
ATOM     13  C   UNL     1      -6.309   0.345   2.805  1.00  0.00     0.035 A 
ATOM     14  C   UNL     1      -4.807   1.280   4.424  1.00  0.00     0.021 A 
ATOM     15  C   UNL     1      -5.566   0.918   1.781  1.00  0.00     0.031 A 
ATOM     16  C   UNL     1      -4.442   1.663   2.077  1.00  0.00    -0.027 A 
BRANCH  13  17
ATOM     17  N   UNL     1      -7.445  -0.415   2.504  1.00  0.00    -0.399 N 
ATOM     18  H   UNL     1      -7.999  -0.837   3.263  1.00  0.00     0.156 HD
ATOM     19  H   UNL     1      -7.728  -0.553   1.523  1.00  0.00     0.156 HD
ENDBRANCH  13  17
BRANCH  16  20
ATOM     20  C   UNL     1      -3.632   2.280   0.965  1.00  0.00    -0.012 C 
ATOM     21  C   UNL     1      -4.263   1.925  -0.383  1.00  0.00     0.016 C 
ATOM     22  C   UNL     1      -2.201   1.740   1.016  1.00  0.00     0.016 C 
ATOM     23  C   UNL     1      -3.610   3.800   1.134  1.00  0.00     0.016 C 
ENDBRANCH  16  20
ENDBRANCH   9  10
ENDBRANCH   1   9
BRANCH   4  24
ATOM     24  C   UNL     1      -2.723   3.448   9.757  1.00  0.00     0.054 C 
BRANCH  24  25
ATOM     25  C   UNL     1      -3.319   2.079  10.090  1.00  0.00     0.039 C 
BRANCH  25  26
ATOM     26  C   UNL     1      -3.529   1.971  11.579  1.00  0.00    -0.048 A 
ATOM     27  C   UNL     1      -4.728   2.372  12.138  1.00  0.00     0.004 A 
ATOM     28  C   UNL     1      -2.524   1.467  12.383  1.00  0.00     0.004 A 
ATOM     29  C   UNL     1      -4.920   2.273  13.504  1.00  0.00     0.000 A 
ATOM     30  C   UNL     1      -2.715   1.372  13.749  1.00  0.00     0.000 A 
ATOM     31  C   UNL     1      -3.914   1.773  14.309  1.00  0.00     0.000 A 
ENDBRANCH  25  26
ENDBRANCH  24  25
ENDBRANCH   4  24
BRANCH   4  32
ATOM     32  C   UNL     1      -1.796   4.872   7.923  1.00  0.00     0.027 C 
ATOM     33  C   UNL     1      -2.659   6.048   8.383  1.00  0.00     0.011 C 
ATOM     34  C   UNL     1      -0.450   4.912   8.649  1.00  0.00     0.011 C 
ENDBRANCH   4  32
TORSDOF 8
