REMARK SMILES Cc1cc(OC(=O)[C@@H](Cc2c[nH]c3ccccc23)NC(=O)OC(C)(C)C)c2c3c(c(=O)oc2c1)CCCC3
REMARK SMILES IDX 8 1 6 2 7 3 5 4 4 5 1 6 2 7 3 8 34 9 33 10 27 11 32 12 28 13
REMARK SMILES IDX 30 14 38 15 29 16 31 17 37 18 35 19 36 20 9 21 10 22 18 23
REMARK SMILES IDX 11 24 13 25 17 26 12 27 14 28 16 29 15 31 19 32 20 33 21 35
REMARK SMILES IDX 22 36 23 37 24 38 25 39 26 40
REMARK H PARENT 12 30 19 34
REMARK Flexibility Score: inf
ROOT
ATOM      1  C   UNL     1      -3.203   4.177  -0.866  1.00  0.00     0.200 C 
ENDROOT
BRANCH   1   2
ATOM      2  C   UNL     1      -1.773   4.641  -0.967  1.00  0.00     0.334 C 
ATOM      3  O   UNL     1      -1.529   5.785  -1.267  1.00  0.00    -0.249 OA
BRANCH   2   4
ATOM      4  O   UNL     1      -0.770   3.782  -0.722  1.00  0.00    -0.424 OA
BRANCH   4   5
ATOM      5  C   UNL     1       0.492   4.230  -0.945  1.00  0.00     0.142 A 
ATOM      6  C   UNL     1       2.984   4.366  -3.781  1.00  0.00     0.044 C 
ATOM      7  C   UNL     1       2.364   4.537  -2.419  1.00  0.00    -0.044 A 
ATOM      8  C   UNL     1       1.076   4.080  -2.191  1.00  0.00     0.051 A 
ATOM      9  C   UNL     1       3.086   5.146  -1.412  1.00  0.00     0.051 A 
ATOM     10  C   UNL     1       2.522   5.308  -0.154  1.00  0.00     0.142 A 
ATOM     11  C   UNL     1       1.217   4.848   0.086  1.00  0.00     0.064 A 
ATOM     12  O   UNL     1       3.213   5.903   0.843  1.00  0.00    -0.422 OA
ATOM     13  C   UNL     1       0.626   5.023   1.418  1.00  0.00    -0.023 A 
ATOM     14  C   UNL     1       2.679   6.063   2.061  1.00  0.00     0.339 A 
ATOM     15  C   UNL     1      -0.775   4.532   1.653  1.00  0.00     0.037 C 
ATOM     16  C   UNL     1       1.370   5.620   2.374  1.00  0.00     0.042 A 
ATOM     17  O   UNL     1       3.341   6.606   2.927  1.00  0.00    -0.246 OA
ATOM     18  C   UNL     1      -1.058   4.405   3.149  1.00  0.00     0.005 C 
ATOM     19  C   UNL     1       0.866   5.840   3.776  1.00  0.00     0.043 C 
ATOM     20  C   UNL     1      -0.655   5.720   3.828  1.00  0.00     0.005 C 
ENDBRANCH   4   5
ENDBRANCH   2   4
ENDBRANCH   1   2
BRANCH   1  21
ATOM     21  C   UNL     1      -3.631   4.155   0.603  1.00  0.00     0.075 C 
BRANCH  21  22
ATOM     22  C   UNL     1      -5.017   3.575   0.714  1.00  0.00    -0.020 A 
ATOM     23  C   UNL     1      -5.364   2.154   0.788  1.00  0.00     0.003 A 
ATOM     24  C   UNL     1      -6.169   4.263   0.758  1.00  0.00     0.087 A 
ATOM     25  C   UNL     1      -6.767   2.101   0.884  1.00  0.00     0.046 A 
ATOM     26  C   UNL     1      -4.621   0.973   0.783  1.00  0.00     0.010 A 
ATOM     27  N   UNL     1      -7.225   3.399   0.860  1.00  0.00    -0.361 N 
ATOM     28  C   UNL     1      -7.397   0.864   0.975  1.00  0.00     0.026 A 
ATOM     29  C   UNL     1      -5.261  -0.232   0.869  1.00  0.00     0.001 A 
ATOM     30  H   UNL     1      -8.215   3.678   0.910  1.00  0.00     0.166 HD
ATOM     31  C   UNL     1      -6.645  -0.290   0.961  1.00  0.00     0.002 A 
ENDBRANCH  21  22
ENDBRANCH   1  21
BRANCH   1  32
ATOM     32  N   UNL     1      -4.068   5.093  -1.613  1.00  0.00    -0.308 N 
ATOM     33  C   UNL     1      -4.124   6.396  -1.271  1.00  0.00     0.408 C 
ATOM     34  H   UNL     1      -4.633   4.743  -2.400  1.00  0.00     0.168 HD
ATOM     35  O   UNL     1      -3.457   6.810  -0.344  1.00  0.00    -0.225 OA
BRANCH  33  36
ATOM     36  O   UNL     1      -4.918   7.239  -1.958  1.00  0.00    -0.444 OA
BRANCH  36  37
ATOM     37  C   UNL     1      -4.928   8.627  -1.534  1.00  0.00     0.106 C 
ATOM     38  C   UNL     1      -3.517   9.207  -1.651  1.00  0.00     0.056 C 
ATOM     39  C   UNL     1      -5.882   9.426  -2.425  1.00  0.00     0.056 C 
ATOM     40  C   UNL     1      -5.396   8.714  -0.080  1.00  0.00     0.056 C 
ENDBRANCH  36  37
ENDBRANCH  33  36
ENDBRANCH   1  32
TORSDOF 8
