REMARK SMILES Cc1cccc(COc2ccc(/C(O)=C3\C(=O)C(=O)N(CC[NH+](C)C)[C@H]3c3ccc(C(C)C)cc3)cc2)c1
REMARK SMILES IDX 9 1 10 2 11 3 12 4 36 5 37 6 8 7 7 8 6 9 1 10 2 11 38 12
REMARK SMILES IDX 3 13 4 14 5 15 13 16 15 17 16 18 26 19 18 20 17 21 20 22
REMARK SMILES IDX 19 23 14 24 27 26 35 27 28 28 34 29 29 30 30 31 31 32 32 33
REMARK SMILES IDX 33 34 21 35 22 36 23 37 24 38 25 39
REMARK H PARENT 14 25 23 40
REMARK Flexibility Score: inf
ROOT
ATOM      1  C   UNL     1       0.668   7.261  -1.476  1.00  0.00     0.119 A 
ATOM      2  C   UNL     1       1.457   8.219  -0.848  1.00  0.00     0.047 A 
ATOM      3  C   UNL     1       1.192   9.557  -1.027  1.00  0.00     0.016 A 
ATOM      4  C   UNL     1       0.118   9.954  -1.833  1.00  0.00     0.017 A 
ATOM      5  C   UNL     1      -0.677   8.986  -2.458  1.00  0.00     0.016 A 
ATOM      6  C   UNL     1      -0.400   7.651  -2.278  1.00  0.00     0.047 A 
ENDROOT
BRANCH   1   7
ATOM      7  O   UNL     1       0.936   5.943  -1.301  1.00  0.00    -0.489 OA
BRANCH   7   8
ATOM      8  C   UNL     1       2.047   5.613  -0.465  1.00  0.00     0.265 C 
BRANCH   8   9
ATOM      9  C   UNL     1       2.191   4.114  -0.389  1.00  0.00    -0.011 A 
ATOM     10  C   UNL     1       0.938   1.259   1.738  1.00  0.00     0.044 C 
ATOM     11  C   UNL     1       1.660   2.031   0.665  1.00  0.00    -0.051 A 
ATOM     12  C   UNL     1       1.533   3.406   0.599  1.00  0.00     0.010 A 
ATOM     13  C   UNL     1       2.454   1.366  -0.251  1.00  0.00     0.003 A 
ATOM     14  C   UNL     1       3.112   2.074  -1.239  1.00  0.00     0.001 A 
ATOM     15  C   UNL     1       2.981   3.449  -1.308  1.00  0.00     0.007 A 
ENDBRANCH   8   9
ENDBRANCH   7   8
ENDBRANCH   1   7
BRANCH   4  16
ATOM     16  C   UNL     1      -0.174  11.384  -2.022  1.00  0.00     0.132 C 
ATOM     17  C   UNL     1      -0.279  12.218  -0.925  1.00  0.00     0.075 C 
ATOM     18  C   UNL     1      -0.281  11.839   0.425  1.00  0.00     0.252 C 
ATOM     19  C   UNL     1      -0.421  13.722  -0.940  1.00  0.00     0.154 C 
ATOM     20  C   UNL     1      -0.412  13.068   1.252  1.00  0.00     0.295 C 
ATOM     21  O   UNL     1      -0.190  10.700   0.847  1.00  0.00    -0.283 OA
ATOM     22  N   UNL     1      -0.496  14.150   0.460  1.00  0.00    -0.319 N 
ATOM     23  O   UNL     1      -0.444  13.090   2.466  1.00  0.00    -0.265 OA
BRANCH  16  24
ATOM     24  O   UNL     1      -0.339  11.880  -3.266  1.00  0.00    -0.507 OA
ATOM     25  H   UNL     1      -1.064  11.334  -3.661  1.00  0.00     0.293 HD
ENDBRANCH  16  24
BRANCH  19  26
ATOM     26  C   UNL     1       0.776  14.348  -1.608  1.00  0.00    -0.021 A 
ATOM     27  C   UNL     1       0.687  14.789  -2.915  1.00  0.00     0.006 A 
ATOM     28  C   UNL     1       1.962  14.486  -0.912  1.00  0.00     0.006 A 
ATOM     29  C   UNL     1       1.785  15.363  -3.527  1.00  0.00     0.004 A 
ATOM     30  C   UNL     1       3.062  15.055  -1.526  1.00  0.00     0.004 A 
ATOM     31  C   UNL     1       2.973  15.495  -2.833  1.00  0.00    -0.045 A 
BRANCH  31  32
ATOM     32  C   UNL     1       4.170  16.120  -3.501  1.00  0.00     0.013 C 
ATOM     33  C   UNL     1       4.599  17.364  -2.721  1.00  0.00     0.012 C 
ATOM     34  C   UNL     1       5.322  15.113  -3.527  1.00  0.00     0.012 C 
ENDBRANCH  31  32
ENDBRANCH  19  26
BRANCH  22  35
ATOM     35  C   UNL     1      -0.639  15.534   0.921  1.00  0.00     0.182 C 
BRANCH  35  36
ATOM     36  C   UNL     1      -2.124  15.878   1.047  1.00  0.00     0.283 C 
BRANCH  36  37
ATOM     37  N   UNL     1      -2.251  17.268   1.532  1.00  0.00    -0.338 N 
ATOM     38  C   UNL     1      -1.774  18.210   0.498  1.00  0.00     0.332 C 
ATOM     39  C   UNL     1      -3.661  17.559   1.868  1.00  0.00     0.332 C 
ATOM     40  H   UNL     1      -1.676  17.381   2.379  1.00  0.00     0.347 HD
ENDBRANCH  36  37
ENDBRANCH  35  36
ENDBRANCH  22  35
ENDBRANCH   4  16
TORSDOF 10
