REMARK SMILES NC(=O)C1CCN(Cn2nc(-c3ccc(F)cc3)n(-c3ccc(SC(F)F)cc3)c2=S)CC1
REMARK SMILES IDX 11 1 10 2 9 3 30 4 31 5 19 6 12 7 13 8 14 9 18 10 15 11
REMARK SMILES IDX 17 12 16 13 20 14 29 15 21 16 28 17 22 18 23 19 24 20 25 21
REMARK SMILES IDX 26 22 27 23 8 24 7 25 32 26 6 27 33 28 5 29 4 30 2 31 3 32
REMARK SMILES IDX 1 33
REMARK H PARENT 1 34 1 35
REMARK Flexibility Score: inf
ROOT
ATOM      1  C   UNL     1       4.726   4.769  -0.324  1.00  0.00     0.167 A 
ATOM      2  N   UNL     1       3.676   4.228  -0.878  1.00  0.00    -0.150 NA
ATOM      3  N   UNL     1       2.778   3.883   0.141  1.00  0.00    -0.223 N 
ATOM      4  C   UNL     1       3.335   4.247   1.314  1.00  0.00     0.204 A 
ATOM      5  S   UNL     1       2.639   4.050   2.866  1.00  0.00    -0.038 S 
ATOM      6  N   UNL     1       4.539   4.789   1.045  1.00  0.00    -0.268 N 
ENDROOT
BRANCH   1   7
ATOM      7  C   UNL     1       5.917   5.276  -1.042  1.00  0.00     0.020 A 
ATOM      8  C   UNL     1       6.787   6.166  -0.411  1.00  0.00     0.015 A 
ATOM      9  C   UNL     1       7.898   6.632  -1.082  1.00  0.00     0.040 A 
ATOM     10  C   UNL     1       6.170   4.871  -2.353  1.00  0.00     0.015 A 
ATOM     11  C   UNL     1       8.145   6.226  -2.384  1.00  0.00     0.123 A 
ATOM     12  C   UNL     1       7.281   5.347  -3.017  1.00  0.00     0.040 A 
ATOM     13  F   UNL     1       9.232   6.690  -3.039  1.00  0.00    -0.207 F 
ENDBRANCH   1   7
BRANCH   6  14
ATOM     14  C   UNL     1       5.444   5.293   1.991  1.00  0.00     0.050 A 
ATOM     15  C   UNL     1       5.133   6.442   2.705  1.00  0.00     0.028 A 
ATOM     16  C   UNL     1       6.648   4.638   2.217  1.00  0.00     0.028 A 
ATOM     17  C   UNL     1       6.023   6.939   3.636  1.00  0.00     0.017 A 
ATOM     18  C   UNL     1       7.541   5.137   3.144  1.00  0.00     0.017 A 
ATOM     19  C   UNL     1       7.230   6.287   3.858  1.00  0.00     0.013 A 
BRANCH  19  20
ATOM     20  S   UNL     1       8.367   6.920   5.047  1.00  0.00    -0.055 SA
BRANCH  20  21
ATOM     21  C   UNL     1       9.760   5.760   4.983  1.00  0.00     0.405 C 
ATOM     22  F   UNL     1       9.313   4.476   5.312  1.00  0.00    -0.198 F 
ATOM     23  F   UNL     1      10.299   5.750   3.692  1.00  0.00    -0.198 F 
ENDBRANCH  20  21
ENDBRANCH  19  20
ENDBRANCH   6  14
BRANCH   3  24
ATOM     24  C   UNL     1       1.469   3.250  -0.037  1.00  0.00     0.234 C 
BRANCH  24  25
ATOM     25  N   UNL     1       1.622   1.790   0.003  1.00  0.00    -0.284 NA
ATOM     26  C   UNL     1       2.480   1.381   1.123  1.00  0.00     0.087 C 
ATOM     27  C   UNL     1       0.315   1.125   0.066  1.00  0.00     0.087 C 
ATOM     28  C   UNL     1       2.736  -0.126   1.048  1.00  0.00     0.029 C 
ATOM     29  C   UNL     1       0.505  -0.390  -0.040  1.00  0.00     0.029 C 
ATOM     30  C   UNL     1       1.398  -0.869   1.108  1.00  0.00     0.081 C 
BRANCH  30  31
ATOM     31  C   UNL     1       1.639  -2.351   0.974  1.00  0.00     0.220 C 
ATOM     32  O   UNL     1       1.145  -2.965   0.052  1.00  0.00    -0.275 OA
ATOM     33  N   UNL     1       2.402  -2.994   1.879  1.00  0.00    -0.369 N 
ATOM     34  H   UNL     1       2.822  -2.473   2.663  1.00  0.00     0.159 HD
ATOM     35  H   UNL     1       2.567  -4.006   1.788  1.00  0.00     0.159 HD
ENDBRANCH  30  31
ENDBRANCH  24  25
ENDBRANCH   3  24
TORSDOF 7
