REMARK SMILES CC[NH+]1CCC(C(=O)NC2CCCCC2)(N(Cc2cccs2)C(=O)CCC(=O)Nc2cc(C)on2)CC1
REMARK SMILES IDX 23 1 24 2 16 3 6 4 3 5 4 6 37 7 5 9 36 10 2 11 1 12 7 13
REMARK SMILES IDX 8 14 9 15 10 17 15 18 11 19 14 20 12 21 13 22 17 23 18 24
REMARK SMILES IDX 22 25 19 26 21 27 20 28 25 29 26 30 27 31 28 32 29 33 30 35
REMARK SMILES IDX 35 36 31 37 34 38 32 39 33 40
REMARK H PARENT 3 8 9 16 29 34
REMARK Flexibility Score: inf
ROOT
ATOM      1  C   UNL     1      -5.153  -4.192  -1.012  1.00  0.00     0.224 C 
ATOM      2  O   UNL     1      -5.252  -5.260  -1.579  1.00  0.00    -0.275 OA
ENDROOT
BRANCH   1   3
ATOM      3  N   UNL     1      -6.237  -3.630  -0.441  1.00  0.00    -0.322 N 
BRANCH   3   4
ATOM      4  C   UNL     1      -7.558  -4.239  -0.619  1.00  0.00     0.132 C 
ATOM      5  N   UNL     1      -8.097  -3.680  -3.404  1.00  0.00    -0.335 N 
ATOM      6  C   UNL     1      -8.128  -2.590  -2.405  1.00  0.00     0.265 C 
ATOM      7  C   UNL     1      -7.080  -4.684  -3.029  1.00  0.00     0.265 C 
ATOM      8  H   UNL     1      -9.021  -4.134  -3.430  1.00  0.00     0.348 HD
ATOM      9  C   UNL     1      -8.560  -3.167  -1.055  1.00  0.00     0.100 C 
ATOM     10  C   UNL     1      -7.480  -5.324  -1.696  1.00  0.00     0.100 C 
BRANCH   5  11
ATOM     11  C   UNL     1      -7.794  -3.130  -4.741  1.00  0.00     0.258 C 
ATOM     12  C   UNL     1      -7.986  -4.233  -5.784  1.00  0.00     0.071 C 
ENDBRANCH   5  11
BRANCH   4  13
ATOM     13  C   UNL     1      -8.009  -4.851   0.682  1.00  0.00     0.246 C 
ATOM     14  O   UNL     1      -9.184  -4.841   0.981  1.00  0.00    -0.272 OA
ATOM     15  N   UNL     1      -7.107  -5.410   1.513  1.00  0.00    -0.351 N 
ATOM     16  H   UNL     1      -6.101  -5.351   1.296  1.00  0.00     0.163 HD
BRANCH  15  17
ATOM     17  C   UNL     1      -7.556  -6.101   2.724  1.00  0.00     0.082 C 
ATOM     18  C   UNL     1      -6.466  -7.066   3.194  1.00  0.00     0.025 C 
ATOM     19  C   UNL     1      -7.837  -5.074   3.823  1.00  0.00     0.025 C 
ATOM     20  C   UNL     1      -6.935  -7.788   4.459  1.00  0.00     0.002 C 
ATOM     21  C   UNL     1      -8.306  -5.797   5.088  1.00  0.00     0.002 C 
ATOM     22  C   UNL     1      -7.216  -6.762   5.558  1.00  0.00     0.000 C 
ENDBRANCH  15  17
ENDBRANCH   4  13
ENDBRANCH   3   4
BRANCH   3  23
ATOM     23  C   UNL     1      -6.094  -2.410   0.358  1.00  0.00     0.167 C 
BRANCH  23  24
ATOM     24  C   UNL     1      -6.178  -1.206  -0.545  1.00  0.00     0.024 A 
ATOM     25  S   UNL     1      -4.898  -0.452  -1.535  1.00  0.00    -0.147 S 
ATOM     26  C   UNL     1      -7.246  -0.419  -0.820  1.00  0.00     0.017 A 
ATOM     27  C   UNL     1      -5.872   0.867  -2.243  1.00  0.00     0.065 A 
ATOM     28  C   UNL     1      -7.088   0.647  -1.686  1.00  0.00     0.012 A 
ENDBRANCH  23  24
ENDBRANCH   3  23
ENDBRANCH   1   3
BRANCH   1  29
ATOM     29  C   UNL     1      -3.820  -3.494  -0.948  1.00  0.00     0.110 C 
BRANCH  29  30
ATOM     30  C   UNL     1      -2.766  -4.339  -1.667  1.00  0.00     0.110 C 
BRANCH  30  31
ATOM     31  C   UNL     1      -1.432  -3.640  -1.603  1.00  0.00     0.226 C 
ATOM     32  O   UNL     1      -1.334  -2.572  -1.036  1.00  0.00    -0.275 OA
ATOM     33  N   UNL     1      -0.349  -4.203  -2.174  1.00  0.00    -0.308 N 
ATOM     34  H   UNL     1      -0.433  -5.110  -2.655  1.00  0.00     0.171 HD
BRANCH  33  35
ATOM     35  C   UNL     1       0.886  -3.556  -2.114  1.00  0.00     0.176 A 
ATOM     36  N   UNL     1       2.016  -3.974  -2.621  1.00  0.00    -0.062 NA
ATOM     37  C   UNL     1       1.167  -2.310  -1.493  1.00  0.00     0.095 A 
ATOM     38  O   UNL     1       2.915  -3.196  -2.400  1.00  0.00    -0.360 OA
ATOM     39  C   UNL     1       2.490  -2.131  -1.706  1.00  0.00     0.135 A 
ATOM     40  C   UNL     1       3.325  -0.961  -1.250  1.00  0.00     0.091 C 
ENDBRANCH  33  35
ENDBRANCH  30  31
ENDBRANCH  29  30
ENDBRANCH   1  29
TORSDOF 11
