REMARK SMILES Cc1ccc2[nH]c(=O)c(-c3nc4ccccn4c3NC[C@H]3CCCO3)cc2c1
REMARK SMILES IDX 19 1 18 3 10 4 11 5 12 6 17 7 13 8 16 9 14 10 15 11 9 12
REMARK SMILES IDX 1 13 2 14 28 15 3 16 27 17 4 18 5 19 26 20 6 21 7 22 8 24
REMARK SMILES IDX 20 25 21 26 25 27 22 28 24 29 23 30
REMARK H PARENT 19 2 6 23
REMARK Flexibility Score: inf
ROOT
ATOM      1  N   UNL     1       3.967   3.029  -0.245  1.00  0.00    -0.367 N 
ATOM      2  H   UNL     1       3.262   3.772  -0.133  1.00  0.00     0.162 HD
ENDROOT
BRANCH   1   3
ATOM      3  C   UNL     1       3.688   1.663  -0.214  1.00  0.00     0.139 A 
ATOM      4  C   UNL     1       2.455   1.079  -0.001  1.00  0.00     0.119 A 
ATOM      5  N   UNL     1       2.612  -0.256  -0.054  1.00  0.00    -0.226 NA
ATOM      6  C   UNL     1       3.885  -0.537  -0.284  1.00  0.00     0.139 A 
ATOM      7  N   UNL     1       4.584   0.644  -0.385  1.00  0.00    -0.286 N 
ATOM      8  C   UNL     1       4.568  -1.763  -0.428  1.00  0.00     0.048 A 
ATOM      9  C   UNL     1       5.932   0.632  -0.624  1.00  0.00     0.095 A 
ATOM     10  C   UNL     1       5.907  -1.757  -0.665  1.00  0.00     0.005 A 
ATOM     11  C   UNL     1       6.594  -0.533  -0.763  1.00  0.00     0.019 A 
BRANCH   4  12
ATOM     12  C   UNL     1       1.183   1.796   0.237  1.00  0.00     0.070 A 
ATOM     13  C   UNL     1      -1.309   7.333   1.221  1.00  0.00     0.044 C 
ATOM     14  C   UNL     1      -1.278   5.838   1.032  1.00  0.00    -0.050 A 
ATOM     15  C   UNL     1      -0.088   5.209   0.809  1.00  0.00     0.013 A 
ATOM     16  C   UNL     1      -2.461   5.113   1.086  1.00  0.00     0.005 A 
ATOM     17  C   UNL     1      -0.055   3.818   0.632  1.00  0.00    -0.001 A 
ATOM     18  C   UNL     1      -2.455   3.747   0.906  1.00  0.00     0.027 A 
ATOM     19  C   UNL     1      -1.253   3.082   0.682  1.00  0.00     0.048 A 
ATOM     20  C   UNL     1       1.176   3.154   0.400  1.00  0.00     0.026 A 
ATOM     21  N   UNL     1      -1.239   1.711   0.516  1.00  0.00    -0.321 N 
ATOM     22  C   UNL     1      -0.083   1.056   0.299  1.00  0.00     0.258 A 
ATOM     23  H   UNL     1      -2.123   1.184   0.558  1.00  0.00     0.170 HD
ATOM     24  O   UNL     1      -0.087  -0.153   0.155  1.00  0.00    -0.269 OA
ENDBRANCH   4  12
ENDBRANCH   1   3
BRANCH   1  25
ATOM     25  C   UNL     1       5.400   3.269  -0.460  1.00  0.00     0.146 C 
BRANCH  25  26
ATOM     26  C   UNL     1       5.671   4.775  -0.461  1.00  0.00     0.137 C 
ATOM     27  O   UNL     1       4.961   5.399  -1.544  1.00  0.00    -0.376 OA
ATOM     28  C   UNL     1       7.172   5.038  -0.686  1.00  0.00     0.036 C 
ATOM     29  C   UNL     1       5.782   6.490  -2.013  1.00  0.00     0.160 C 
ATOM     30  C   UNL     1       7.218   5.909  -1.965  1.00  0.00     0.031 C 
ENDBRANCH  25  26
ENDBRANCH   1  25
TORSDOF 4
