REMARK SMILES Cc1ccc(-c2cc(C(=O)Nc3nc(-c4c[nH]c(C(N)=O)c4)cs3)c3cnn(C(C)C)c3n2)s1
REMARK SMILES IDX 12 1 13 2 14 3 23 4 24 5 11 6 9 7 10 8 8 10 6 11 33 12 7 13
REMARK SMILES IDX 32 14 25 15 28 16 26 17 27 18 5 19 1 20 2 21 34 22 3 23 4 24
REMARK SMILES IDX 29 25 30 26 31 27 15 28 16 29 22 30 17 31 18 32 19 34 21 35
REMARK SMILES IDX 20 36
REMARK H PARENT 11 9 17 33 20 37 20 38
REMARK Flexibility Score: inf
ROOT
ATOM      1  C   UNL     1       2.303   0.078  -0.019  1.00  0.00     0.190 A 
ATOM      2  N   UNL     1       1.180  -0.611  -0.013  1.00  0.00    -0.220 NA
ATOM      3  C   UNL     1       0.002  -0.004   0.002  1.00  0.00     0.085 A 
ATOM      4  C   UNL     1      -0.017   1.362   0.009  1.00  0.00     0.097 A 
ATOM      5  S   UNL     1       1.734   1.718  -0.005  1.00  0.00    -0.105 S 
ENDROOT
BRANCH   1   6
ATOM      6  N   UNL     1       3.610  -0.389  -0.035  1.00  0.00    -0.298 N 
ATOM      7  C   UNL     1       4.638   0.483  -0.040  1.00  0.00     0.258 C 
ATOM      8  O   UNL     1       4.420   1.679  -0.031  1.00  0.00    -0.269 OA
ATOM      9  H   UNL     1       3.795  -1.402  -0.043  1.00  0.00     0.172 HD
BRANCH   7  10
ATOM     10  C   UNL     1       6.029  -0.014  -0.056  1.00  0.00     0.055 A 
ATOM     11  C   UNL     1       7.635  -1.808  -0.082  1.00  0.00     0.084 A 
ATOM     12  N   UNL     1       8.639  -0.943  -0.087  1.00  0.00    -0.227 NA
ATOM     13  C   UNL     1       6.302  -1.376  -0.061  1.00  0.00     0.044 A 
ATOM     14  C   UNL     1       8.435   0.366  -0.078  1.00  0.00     0.159 A 
ATOM     15  C   UNL     1       7.124   0.883  -0.062  1.00  0.00     0.052 A 
ATOM     16  N   UNL     1       9.277   1.448  -0.080  1.00  0.00    -0.245 N 
ATOM     17  C   UNL     1       7.232   2.289  -0.055  1.00  0.00     0.146 A 
ATOM     18  N   UNL     1       8.495   2.609  -0.065  1.00  0.00    -0.179 NA
BRANCH  11  19
ATOM     19  C   UNL     1       7.927  -3.254  -0.093  1.00  0.00     0.053 A 
ATOM     20  C   UNL     1       7.764  -7.440  -0.118  1.00  0.00     0.056 C 
ATOM     21  C   UNL     1       7.993  -5.951  -0.111  1.00  0.00     0.002 A 
ATOM     22  S   UNL     1       6.790  -4.631  -0.091  1.00  0.00    -0.139 S 
ATOM     23  C   UNL     1       9.167  -5.266  -0.118  1.00  0.00     0.016 A 
ATOM     24  C   UNL     1       9.141  -3.890  -0.114  1.00  0.00     0.022 A 
ENDBRANCH  11  19
BRANCH  16  25
ATOM     25  C   UNL     1      10.741   1.399  -0.094  1.00  0.00     0.103 C 
ATOM     26  C   UNL     1      11.263   2.109  -1.345  1.00  0.00     0.033 C 
ATOM     27  C   UNL     1      11.287   2.096   1.153  1.00  0.00     0.033 C 
ENDBRANCH  16  25
ENDBRANCH   7  10
ENDBRANCH   1   6
BRANCH   3  28
ATOM     28  C   UNL     1      -1.261  -0.786   0.010  1.00  0.00     0.019 A 
ATOM     29  C   UNL     1      -2.526  -0.278  -0.071  1.00  0.00     0.093 A 
ATOM     30  C   UNL     1      -1.372  -2.186   0.097  1.00  0.00     0.043 A 
ATOM     31  N   UNL     1      -3.406  -1.308  -0.031  1.00  0.00    -0.357 N 
ATOM     32  C   UNL     1      -2.705  -2.488   0.076  1.00  0.00     0.104 A 
ATOM     33  H   UNL     1      -4.432  -1.221  -0.075  1.00  0.00     0.166 HD
BRANCH  32  34
ATOM     34  C   UNL     1      -3.287  -3.833   0.148  1.00  0.00     0.265 C 
ATOM     35  O   UNL     1      -2.562  -4.805   0.242  1.00  0.00    -0.268 OA
ATOM     36  N   UNL     1      -4.625  -3.991   0.110  1.00  0.00    -0.364 N 
ATOM     37  H   UNL     1      -5.239  -3.168   0.030  1.00  0.00     0.160 HD
ATOM     38  H   UNL     1      -5.033  -4.936   0.161  1.00  0.00     0.160 HD
ENDBRANCH  32  34
ENDBRANCH   3  28
TORSDOF 6
