REMARK SMILES Cc1ccc(C(=O)N/C(=C\c2cn(-c3ccccc3)nc2-c2ccccc2)C(=O)NC[C@@H]2CCCO2)cc1
REMARK SMILES IDX 28 1 29 2 30 3 9 5 10 6 8 7 6 8 7 9 5 11 1 12 2 13 38 14
REMARK SMILES IDX 3 15 37 16 4 17 11 18 21 19 12 20 20 21 13 22 22 23 27 24
REMARK SMILES IDX 23 25 26 26 24 27 25 28 14 29 19 30 15 31 18 32 16 33 17 34
REMARK SMILES IDX 31 35 32 36 36 37 33 38 35 39 34 40
REMARK H PARENT 30 4 8 10
REMARK Flexibility Score: inf
ROOT
ATOM      1  C   UNL     1       5.235   4.321  -2.608  1.00  0.00     0.267 C 
ATOM      2  O   UNL     1       4.346   5.146  -2.706  1.00  0.00    -0.268 OA
ATOM      3  N   UNL     1       6.459   4.588  -3.106  1.00  0.00    -0.348 N 
ATOM      4  H   UNL     1       7.188   3.860  -3.098  1.00  0.00     0.163 HD
ENDROOT
BRANCH   1   5
ATOM      5  C   UNL     1       4.975   3.038  -1.950  1.00  0.00     0.107 C 
ATOM      6  C   UNL     1       3.772   2.804  -1.371  1.00  0.00     0.044 C 
BRANCH   5   7
ATOM      7  N   UNL     1       5.971   2.052  -1.918  1.00  0.00    -0.317 N 
ATOM      8  C   UNL     1       6.475   1.567  -3.070  1.00  0.00     0.255 C 
ATOM      9  O   UNL     1       6.144   2.057  -4.133  1.00  0.00    -0.269 OA
ATOM     10  H   UNL     1       6.317   1.698  -1.015  1.00  0.00     0.170 HD
BRANCH   8  11
ATOM     11  C   UNL     1       7.430   0.439  -3.042  1.00  0.00     0.040 A 
ATOM     12  C   UNL     1      10.192  -2.825  -2.959  1.00  0.00     0.044 C 
ATOM     13  C   UNL     1       9.219  -1.674  -2.988  1.00  0.00    -0.051 A 
ATOM     14  C   UNL     1       8.704  -1.178  -1.804  1.00  0.00     0.004 A 
ATOM     15  C   UNL     1       8.844  -1.119  -4.199  1.00  0.00     0.004 A 
ATOM     16  C   UNL     1       7.817  -0.121  -1.823  1.00  0.00     0.014 A 
ATOM     17  C   UNL     1       7.954  -0.067  -4.233  1.00  0.00     0.014 A 
ENDBRANCH   8  11
ENDBRANCH   5   7
BRANCH   6  18
ATOM     18  C   UNL     1       3.458   1.470  -0.844  1.00  0.00     0.023 A 
ATOM     19  C   UNL     1       2.374   1.125   0.083  1.00  0.00     0.100 A 
ATOM     20  C   UNL     1       4.123   0.292  -1.121  1.00  0.00     0.123 A 
ATOM     21  N   UNL     1       2.451  -0.170   0.301  1.00  0.00    -0.167 NA
ATOM     22  N   UNL     1       3.516  -0.696  -0.436  1.00  0.00    -0.240 N 
BRANCH  19  23
ATOM     23  C   UNL     1       1.384   2.059   0.669  1.00  0.00     0.003 A 
ATOM     24  C   UNL     1       1.758   3.362   0.994  1.00  0.00     0.010 A 
ATOM     25  C   UNL     1       0.074   1.638   0.897  1.00  0.00     0.010 A 
ATOM     26  C   UNL     1       0.832   4.227   1.540  1.00  0.00     0.001 A 
ATOM     27  C   UNL     1      -0.845   2.514   1.438  1.00  0.00     0.001 A 
ATOM     28  C   UNL     1      -0.466   3.804   1.764  1.00  0.00     0.000 A 
ENDBRANCH  19  23
BRANCH  22  29
ATOM     29  C   UNL     1       3.897  -2.043  -0.454  1.00  0.00     0.065 A 
ATOM     30  C   UNL     1       3.132  -2.992   0.212  1.00  0.00     0.028 A 
ATOM     31  C   UNL     1       5.038  -2.435  -1.142  1.00  0.00     0.028 A 
ATOM     32  C   UNL     1       3.510  -4.320   0.192  1.00  0.00     0.002 A 
ATOM     33  C   UNL     1       5.415  -3.763  -1.153  1.00  0.00     0.002 A 
ATOM     34  C   UNL     1       4.650  -4.705  -0.489  1.00  0.00     0.000 A 
ENDBRANCH  22  29
ENDBRANCH   6  18
ENDBRANCH   1   5
BRANCH   3  35
ATOM     35  C   UNL     1       6.753   5.913  -3.658  1.00  0.00     0.148 C 
BRANCH  35  36
ATOM     36  C   UNL     1       8.200   5.950  -4.151  1.00  0.00     0.137 C 
ATOM     37  O   UNL     1       8.354   5.121  -5.324  1.00  0.00    -0.376 OA
ATOM     38  C   UNL     1       8.571   7.374  -4.623  1.00  0.00     0.036 C 
ATOM     39  C   UNL     1       9.551   5.599  -5.974  1.00  0.00     0.160 C 
ATOM     40  C   UNL     1       9.480   7.138  -5.850  1.00  0.00     0.031 C 
ENDBRANCH  35  36
ENDBRANCH   3  35
TORSDOF 8
