REMARK SMILES C[C@@H]1[C@H](C)CCC[C@@H]1NC(=S)NNC(=O)CCNS(=O)(=O)c1ccc(Br)cc1
REMARK SMILES IDX 13 1 14 2 15 3 12 5 10 7 11 8 9 9 8 11 4 12 3 13 2 14 5 15
REMARK SMILES IDX 1 16 6 17 7 18 16 19 17 20 18 21 19 23 20 24 21 25 22 26
REMARK SMILES IDX 28 27 23 28 27 29 24 30 25 31 26 32
REMARK H PARENT 13 4 12 6 9 10 18 22
REMARK Flexibility Score: inf
ROOT
ATOM      1  N   UNL     1       3.601  -3.770  -5.815  1.00  0.00    -0.268 N 
ATOM      2  C   UNL     1       3.458  -3.136  -4.634  1.00  0.00     0.239 C 
ATOM      3  O   UNL     1       4.271  -2.305  -4.290  1.00  0.00    -0.273 OA
ATOM      4  H   UNL     1       2.910  -4.476  -6.107  1.00  0.00     0.191 HD
ENDROOT
BRANCH   1   5
ATOM      5  N   UNL     1       4.689  -3.469  -6.644  1.00  0.00    -0.274 N 
ATOM      6  H   UNL     1       5.379  -2.763  -6.352  1.00  0.00     0.190 HD
BRANCH   5   7
ATOM      7  C   UNL     1       4.832  -4.102  -7.825  1.00  0.00     0.185 C 
ATOM      8  S   UNL     1       6.162  -3.734  -8.838  1.00  0.00    -0.039 S 
BRANCH   7   9
ATOM      9  N   UNL     1       3.929  -5.026  -8.208  1.00  0.00    -0.358 N 
ATOM     10  H   UNL     1       3.129  -5.248  -7.598  1.00  0.00     0.163 HD
BRANCH   9  11
ATOM     11  C   UNL     1       4.084  -5.715  -9.491  1.00  0.00     0.084 C 
ATOM     12  C   UNL     1       1.513  -7.405 -11.806  1.00  0.00     0.008 C 
ATOM     13  C   UNL     1       2.880  -6.920 -11.319  1.00  0.00    -0.009 C 
ATOM     14  C   UNL     1       2.717  -6.200  -9.979  1.00  0.00     0.011 C 
ATOM     15  C   UNL     1       3.814  -8.119 -11.144  1.00  0.00     0.004 C 
ATOM     16  C   UNL     1       2.122  -7.165  -8.951  1.00  0.00     0.010 C 
ATOM     17  C   UNL     1       5.181  -7.634 -10.657  1.00  0.00     0.002 C 
ATOM     18  C   UNL     1       5.018  -6.914  -9.316  1.00  0.00     0.025 C 
ENDBRANCH   9  11
ENDBRANCH   7   9
ENDBRANCH   5   7
ENDBRANCH   1   5
BRANCH   2  19
ATOM     19  C   UNL     1       2.287  -3.460  -3.742  1.00  0.00     0.118 C 
BRANCH  19  20
ATOM     20  C   UNL     1       2.361  -2.607  -2.474  1.00  0.00     0.109 C 
BRANCH  20  21
ATOM     21  N   UNL     1       1.223  -2.922  -1.606  1.00  0.00    -0.211 NA
ATOM     22  H   UNL     1       0.418  -3.444  -1.982  1.00  0.00     0.141 HD
BRANCH  21  23
ATOM     23  S   UNL     1       1.232  -2.441  -0.022  1.00  0.00     0.240 S 
ATOM     24  O   UNL     1       2.487  -2.833   0.515  1.00  0.00    -0.207 OA
ATOM     25  O   UNL     1      -0.003  -2.866   0.538  1.00  0.00    -0.207 OA
BRANCH  23  26
ATOM     26  C   UNL     1       1.208  -0.679  -0.013  1.00  0.00     0.082 A 
ATOM     27  C   UNL     1       2.396   0.028  -0.021  1.00  0.00     0.023 A 
ATOM     28  C   UNL     1       0.002  -0.004   0.002  1.00  0.00     0.023 A 
ATOM     29  C   UNL     1       2.379   1.410  -0.013  1.00  0.00     0.017 A 
ATOM     30  C   UNL     1      -0.017   1.378   0.010  1.00  0.00     0.017 A 
ATOM     31  C   UNL     1       1.172   2.086   0.002  1.00  0.00     0.018 A 
ATOM     32  Br  UNL     1       1.147   3.976   0.013  1.00  0.00    -0.051 Br
ENDBRANCH  23  26
ENDBRANCH  21  23
ENDBRANCH  20  21
ENDBRANCH  19  20
ENDBRANCH   2  19
TORSDOF 9
