REMARK SMILES C[C@@H]1CCc2c(-c3nnc(SCC(=O)Nc4sc5c(c4C(N)=O)CC[C@@H](C)C5)n3C)csc2C1
REMARK SMILES IDX 12 1 11 2 10 3 7 4 29 5 8 6 30 7 9 8 6 9 1 10 2 11 34 12
REMARK SMILES IDX 3 13 33 14 4 15 5 16 32 17 31 18 13 19 14 20 15 21 16 23
REMARK SMILES IDX 17 24 20 25 18 26 19 27 28 28 24 29 26 30 25 31 27 32 21 33
REMARK SMILES IDX 23 34 22 35
REMARK H PARENT 15 22 22 36 22 37
REMARK Flexibility Score: inf
ROOT
ATOM      1  C   UNL     1      -6.826  -0.512  -0.619  1.00  0.00     0.178 C 
ENDROOT
BRANCH   1   2
ATOM      2  S   UNL     1      -5.204  -1.315  -0.605  1.00  0.00    -0.076 SA
BRANCH   2   3
ATOM      3  C   UNL     1      -4.181   0.068  -0.225  1.00  0.00     0.191 A 
ATOM      4  C   UNL     1      -2.467   1.353   0.209  1.00  0.00     0.165 A 
ATOM      5  N   UNL     1      -2.820   0.058  -0.089  1.00  0.00    -0.305 N 
ATOM      6  N   UNL     1      -3.575   2.058   0.230  1.00  0.00    -0.129 NA
ATOM      7  C   UNL     1      -1.925  -1.094  -0.227  1.00  0.00     0.154 C 
ATOM      8  N   UNL     1      -4.582   1.302  -0.025  1.00  0.00    -0.123 NA
BRANCH   4   9
ATOM      9  C   UNL     1      -1.099   1.858   0.454  1.00  0.00     0.034 A 
ATOM     10  C   UNL     1       1.073   6.540  -2.030  1.00  0.00     0.008 C 
ATOM     11  C   UNL     1       0.551   5.152  -1.653  1.00  0.00    -0.009 C 
ATOM     12  C   UNL     1       1.338   4.616  -0.447  1.00  0.00     0.050 C 
ATOM     13  C   UNL     1      -0.928   5.246  -1.271  1.00  0.00     0.008 C 
ATOM     14  C   UNL     1       0.618   3.422   0.092  1.00  0.00     0.009 A 
ATOM     15  C   UNL     1      -1.523   3.844  -1.134  1.00  0.00     0.038 C 
ATOM     16  C   UNL     1      -0.653   3.031  -0.179  1.00  0.00    -0.023 A 
ATOM     17  S   UNL     1       1.214   2.196   1.225  1.00  0.00    -0.148 S 
ATOM     18  C   UNL     1      -0.260   1.191   1.300  1.00  0.00     0.077 A 
ENDBRANCH   4   9
ENDBRANCH   2   3
ENDBRANCH   1   2
BRANCH   1  19
ATOM     19  C   UNL     1      -7.889  -1.532  -0.932  1.00  0.00     0.235 C 
ATOM     20  O   UNL     1      -7.581  -2.689  -1.127  1.00  0.00    -0.274 OA
ATOM     21  N   UNL     1      -9.183  -1.160  -0.996  1.00  0.00    -0.316 N 
ATOM     22  H   UNL     1      -9.445  -0.178  -0.831  1.00  0.00     0.170 HD
BRANCH  21  23
ATOM     23  C   UNL     1     -10.161  -2.099  -1.284  1.00  0.00     0.108 A 
ATOM     24  S   UNL     1      -9.969  -3.793  -1.597  1.00  0.00    -0.122 S 
ATOM     25  C   UNL     1     -11.533  -1.912  -1.387  1.00  0.00     0.077 A 
ATOM     26  C   UNL     1     -11.665  -4.229  -1.861  1.00  0.00     0.011 A 
ATOM     27  C   UNL     1     -12.347  -3.073  -1.706  1.00  0.00    -0.019 A 
ATOM     28  C   UNL     1     -12.233  -5.576  -2.183  1.00  0.00     0.050 C 
ATOM     29  C   UNL     1     -13.862  -3.029  -1.858  1.00  0.00     0.038 C 
ATOM     30  C   UNL     1     -13.750  -5.531  -1.945  1.00  0.00    -0.009 C 
ATOM     31  C   UNL     1     -14.317  -4.277  -2.617  1.00  0.00     0.008 C 
ATOM     32  C   UNL     1     -14.401  -6.776  -2.550  1.00  0.00     0.008 C 
BRANCH  25  33
ATOM     33  C   UNL     1     -12.137  -0.592  -1.185  1.00  0.00     0.251 C 
ATOM     34  O   UNL     1     -12.283   0.162  -2.130  1.00  0.00    -0.269 OA
ATOM     35  N   UNL     1     -12.531  -0.212   0.047  1.00  0.00    -0.365 N 
ATOM     36  H   UNL     1     -12.407  -0.850   0.846  1.00  0.00     0.159 HD
ATOM     37  H   UNL     1     -12.955   0.715   0.189  1.00  0.00     0.159 HD
ENDBRANCH  25  33
ENDBRANCH  21  23
ENDBRANCH   1  19
TORSDOF 6
