REMARK SMILES O=C(CSc1nnc(SCc2ccccc2Cl)s1)N/N=C\c1ccc(O)cc1O
REMARK SMILES IDX 3 1 4 2 5 3 8 4 18 5 7 6 6 7 9 8 10 9 11 10 13 11 12 12
REMARK SMILES IDX 14 13 15 14 16 15 17 16 2 17 1 18 19 19 20 21 21 22 22 23
REMARK SMILES IDX 28 24 23 25 27 26 24 27 25 28 29 29 26 31
REMARK H PARENT 19 20 29 30 26 32
REMARK Flexibility Score: inf
ROOT
ATOM      1  C   UNL     1       4.988   3.332   4.769  1.00  0.00     0.179 C 
ENDROOT
BRANCH   1   2
ATOM      2  S   UNL     1       6.079   3.822   6.133  1.00  0.00    -0.084 SA
BRANCH   2   3
ATOM      3  C   UNL     1       5.172   3.390   7.581  1.00  0.00     0.175 A 
ATOM      4  C   UNL     1       4.139   2.891  10.012  1.00  0.00     0.175 A 
ATOM      5  S   UNL     1       5.627   3.575   9.299  1.00  0.00    -0.079 S 
ATOM      6  N   UNL     1       3.449   2.583   8.930  1.00  0.00    -0.131 NA
ATOM      7  N   UNL     1       3.978   2.839   7.686  1.00  0.00    -0.131 NA
BRANCH   4   8
ATOM      8  S   UNL     1       3.710   2.677  11.708  1.00  0.00    -0.089 SA
BRANCH   8   9
ATOM      9  C   UNL     1       2.063   1.918  11.651  1.00  0.00     0.114 C 
BRANCH   9  10
ATOM     10  C   UNL     1       1.572   1.678  13.056  1.00  0.00    -0.019 A 
ATOM     11  C   UNL     1       1.397   0.260  14.977  1.00  0.00     0.000 A 
ATOM     12  C   UNL     1       1.843   0.479  13.687  1.00  0.00     0.006 A 
ATOM     13  C   UNL     1       0.671   1.237  15.633  1.00  0.00     0.002 A 
ATOM     14  C   UNL     1       0.395   2.435  15.001  1.00  0.00     0.021 A 
ATOM     15  C   UNL     1       0.846   2.656  13.711  1.00  0.00     0.045 A 
ATOM     16  Cl  UNL     1       0.499   4.160  12.916  1.00  0.00    -0.084 Cl
ENDBRANCH   9  10
ENDBRANCH   8   9
ENDBRANCH   4   8
ENDBRANCH   2   3
ENDBRANCH   1   2
BRANCH   1  17
ATOM     17  C   UNL     1       5.653   3.650   3.455  1.00  0.00     0.250 C 
ATOM     18  O   UNL     1       6.755   4.158   3.440  1.00  0.00    -0.272 OA
ATOM     19  N   UNL     1       5.023   3.371   2.296  1.00  0.00    -0.246 N 
ATOM     20  H   UNL     1       4.088   2.940   2.309  1.00  0.00     0.193 HD
BRANCH  19  21
ATOM     21  N   UNL     1       5.641   3.667   1.075  1.00  0.00    -0.181 NA
ATOM     22  C   UNL     1       5.088   3.296  -0.040  1.00  0.00     0.145 C 
BRANCH  22  23
ATOM     23  C   UNL     1       3.936   2.378  -0.020  1.00  0.00     0.037 A 
ATOM     24  C   UNL     1       2.995   2.406  -1.060  1.00  0.00     0.128 A 
ATOM     25  C   UNL     1       3.775   1.477   1.036  1.00  0.00     0.017 A 
ATOM     26  C   UNL     1       1.918   1.538  -1.036  1.00  0.00     0.093 A 
ATOM     27  C   UNL     1       2.695   0.621   1.051  1.00  0.00     0.047 A 
ATOM     28  C   UNL     1       1.764   0.651   0.020  1.00  0.00     0.119 A 
BRANCH  24  29
ATOM     29  O   UNL     1       3.144   3.279  -2.090  1.00  0.00    -0.507 OA
ATOM     30  H   UNL     1       4.043   3.085  -2.458  1.00  0.00     0.293 HD
ENDBRANCH  24  29
BRANCH  28  31
ATOM     31  O   UNL     1       0.702  -0.196   0.042  1.00  0.00    -0.508 OA
ATOM     32  H   UNL     1       0.249  -0.015   0.904  1.00  0.00     0.293 HD
ENDBRANCH  28  31
ENDBRANCH  22  23
ENDBRANCH  19  21
ENDBRANCH   1  17
TORSDOF 10
