REMARK SMILES COc1cc(C[NH2+][C@@]23C[C@@H]4C[C@@H](C[C@@](O)(C4)C2)C3)cc(Br)c1OCc1ccc(F)cc1
REMARK SMILES IDX 3 1 4 2 5 3 19 4 20 5 22 6 21 7 2 8 1 9 23 10 24 11 25 12
REMARK SMILES IDX 31 13 26 14 30 15 27 16 28 17 29 18 6 19 7 20 8 23 9 24
REMARK SMILES IDX 17 25 18 26 10 27 14 28 12 29 11 30 16 31 13 32 15 33
REMARK H PARENT 7 21 7 22 15 34
REMARK Flexibility Score: inf
ROOT
ATOM      1  C   UNL     1       0.436  -0.671   6.534  1.00  0.00     0.162 A 
ATOM      2  C   UNL     1      -0.260  -0.191   5.437  1.00  0.00     0.060 A 
ATOM      3  C   UNL     1       0.076   1.030   4.884  1.00  0.00     0.011 A 
ATOM      4  C   UNL     1       1.101   1.781   5.431  1.00  0.00     0.029 A 
ATOM      5  C   UNL     1       1.796   1.311   6.530  1.00  0.00     0.064 A 
ATOM      6  C   UNL     1       1.467   0.084   7.085  1.00  0.00     0.175 A 
ATOM      7  Br  UNL     1       3.196   2.341   7.275  1.00  0.00    -0.047 Br
ENDROOT
BRANCH   1   8
ATOM      8  O   UNL     1       0.110  -1.876   7.075  1.00  0.00    -0.493 OA
ATOM      9  C   UNL     1      -0.959  -2.596   6.458  1.00  0.00     0.278 C 
ENDBRANCH   1   8
BRANCH   6  10
ATOM     10  O   UNL     1       2.150  -0.381   8.166  1.00  0.00    -0.484 OA
BRANCH  10  11
ATOM     11  C   UNL     1       1.642  -0.029   9.454  1.00  0.00     0.265 C 
BRANCH  11  12
ATOM     12  C   UNL     1       2.522  -0.627  10.521  1.00  0.00    -0.011 A 
ATOM     13  C   UNL     1       3.601   0.086  11.008  1.00  0.00     0.010 A 
ATOM     14  C   UNL     1       2.244  -1.888  11.018  1.00  0.00     0.010 A 
ATOM     15  C   UNL     1       4.408  -0.462  11.986  1.00  0.00     0.039 A 
ATOM     16  C   UNL     1       3.053  -2.440  11.993  1.00  0.00     0.039 A 
ATOM     17  C   UNL     1       4.135  -1.726  12.481  1.00  0.00     0.123 A 
ATOM     18  F   UNL     1       4.923  -2.263  13.438  1.00  0.00    -0.207 F 
ENDBRANCH  11  12
ENDBRANCH  10  11
ENDBRANCH   6  10
BRANCH   3  19
ATOM     19  C   UNL     1      -0.679   1.548   3.687  1.00  0.00     0.297 C 
BRANCH  19  20
ATOM     20  N   UNL     1      -0.009   1.087   2.457  1.00  0.00    -0.338 N 
ATOM     21  H   UNL     1       0.008   0.057   2.442  1.00  0.00     0.347 HD
ATOM     22  H   UNL     1       0.958   1.440   2.441  1.00  0.00     0.347 HD
BRANCH  20  23
ATOM     23  C   UNL     1      -0.729   1.579   1.267  1.00  0.00     0.100 C 
ATOM     24  C   UNL     1      -0.750   3.109   1.275  1.00  0.00     0.072 C 
ATOM     25  C   UNL     1      -0.013   1.086   0.008  1.00  0.00     0.103 C 
ATOM     26  C   UNL     1      -2.164   1.050   1.278  1.00  0.00     0.072 C 
ATOM     27  C   UNL     1      -1.490   3.616   0.036  1.00  0.00    -0.002 C 
ATOM     28  C   UNL     1      -0.753   1.593  -1.232  1.00  0.00     0.071 C 
ATOM     29  C   UNL     1      -2.904   1.556   0.038  1.00  0.00    -0.002 C 
ATOM     30  C   UNL     1      -2.925   3.086   0.047  1.00  0.00     0.008 C 
ATOM     31  C   UNL     1      -0.773   3.123  -1.223  1.00  0.00     0.039 C 
ATOM     32  C   UNL     1      -2.188   1.063  -1.221  1.00  0.00     0.039 C 
BRANCH  28  33
ATOM     33  O   UNL     1      -0.084   1.132  -2.407  1.00  0.00    -0.390 OA
ATOM     34  H   UNL     1       0.845   1.474  -2.415  1.00  0.00     0.211 HD
ENDBRANCH  28  33
ENDBRANCH  20  23
ENDBRANCH  19  20
ENDBRANCH   3  19
TORSDOF 8
