REMARK SMILES C=CC(C)(C)c1[nH]c2c3c(ccc2c1C[C@@H]1NC(=O)[C@H]2CCCN2C1=O)OC(C)(C)C=C3
REMARK SMILES IDX 29 1 28 2 31 3 32 4 9 5 10 6 11 7 12 8 13 9 8 10 7 11 6 12
REMARK SMILES IDX 14 13 27 14 30 15 15 17 16 18 17 19 25 20 18 21 26 23 24 24
REMARK SMILES IDX 20 25 19 26 23 27 21 28 22 29 3 30 4 31 5 32 2 33 1 34
REMARK H PARENT 7 16 17 22
REMARK Flexibility Score: inf
ROOT
ATOM      1  C   UNL     1      -4.843  -7.677  -4.757  1.00  0.00     0.061 C 
ATOM      2  C   UNL     1      -4.146  -6.524  -4.032  1.00  0.00     0.122 C 
ATOM      3  C   UNL     1      -4.619  -5.215  -4.606  1.00  0.00     0.021 C 
ATOM      4  C   UNL     1      -3.818  -4.150  -4.582  1.00  0.00     0.014 C 
ATOM      5  C   UNL     1      -2.475  -4.305  -3.986  1.00  0.00     0.041 A 
ATOM      6  C   UNL     1      -1.967  -5.597  -3.813  1.00  0.00     0.129 A 
ATOM      7  C   UNL     1      -0.707  -5.783  -3.261  1.00  0.00     0.048 A 
ATOM      8  C   UNL     1       0.056  -4.699  -2.887  1.00  0.00     0.014 A 
ATOM      9  C   UNL     1      -0.432  -3.402  -3.061  1.00  0.00     0.004 A 
ATOM     10  C   UNL     1      -1.708  -3.196  -3.615  1.00  0.00     0.057 A 
ATOM     11  N   UNL     1      -1.913  -1.837  -3.670  1.00  0.00    -0.357 N 
ATOM     12  C   UNL     1      -0.822  -1.180  -3.168  1.00  0.00     0.029 A 
ATOM     13  C   UNL     1       0.106  -2.068  -2.779  1.00  0.00    -0.016 A 
ATOM     14  O   UNL     1      -2.732  -6.656  -4.186  1.00  0.00    -0.483 OA
ATOM     15  C   UNL     1      -4.498  -6.576  -2.544  1.00  0.00     0.061 C 
ATOM     16  H   UNL     1      -2.762  -1.382  -4.035  1.00  0.00     0.166 HD
ENDROOT
BRANCH  13  17
ATOM     17  C   UNL     1       1.450  -1.753  -2.173  1.00  0.00     0.073 C 
BRANCH  17  18
ATOM     18  C   UNL     1       2.519  -1.769  -3.268  1.00  0.00     0.176 C 
ATOM     19  N   UNL     1       2.665  -3.128  -3.785  1.00  0.00    -0.342 N 
ATOM     20  C   UNL     1       3.833  -1.295  -2.693  1.00  0.00     0.246 C 
ATOM     21  C   UNL     1       3.488  -4.025  -3.214  1.00  0.00     0.243 C 
ATOM     22  H   UNL     1       2.121  -3.408  -4.613  1.00  0.00     0.164 HD
ATOM     23  O   UNL     1       4.153  -0.126  -2.747  1.00  0.00    -0.272 OA
ATOM     24  N   UNL     1       4.639  -2.207  -2.119  1.00  0.00    -0.329 N 
ATOM     25  C   UNL     1       4.327  -3.646  -2.018  1.00  0.00     0.174 C 
ATOM     26  O   UNL     1       3.553  -5.151  -3.660  1.00  0.00    -0.273 OA
ATOM     27  C   UNL     1       5.952  -2.006  -1.502  1.00  0.00     0.120 C 
ATOM     28  C   UNL     1       5.681  -4.372  -2.091  1.00  0.00     0.037 C 
ATOM     29  C   UNL     1       6.740  -3.307  -1.746  1.00  0.00     0.024 C 
ENDBRANCH  17  18
ENDBRANCH  13  17
BRANCH  12  30
ATOM     30  C   UNL     1      -0.684   0.317  -3.066  1.00  0.00     0.023 C 
ATOM     31  C   UNL     1      -1.880   0.987  -3.746  1.00  0.00     0.022 C 
ATOM     32  C   UNL     1      -0.640   0.727  -1.593  1.00  0.00     0.022 C 
BRANCH  30  33
ATOM     33  C   UNL     1       0.588   0.751  -3.747  1.00  0.00    -0.022 C 
ATOM     34  C   UNL     1       0.534   1.492  -4.826  1.00  0.00     0.005 C 
ENDBRANCH  30  33
ENDBRANCH  12  30
TORSDOF 4
