REMARK SMILES CCOC(=O)c1csc(NCC(=O)Nc2nc3c(s2)CCCCCCCCCC3)n1
REMARK SMILES IDX 12 1 13 2 14 3 11 5 10 6 9 8 6 9 30 10 7 11 8 12 4 13 5 14
REMARK SMILES IDX 3 15 2 16 1 17 15 18 19 19 16 20 18 21 17 22 20 23 21 24
REMARK SMILES IDX 22 25 23 26 24 27 29 29 28 30 27 31 26 32 25 33
REMARK H PARENT 14 4 10 7
REMARK Flexibility Score: 80.00
ROOT
ATOM      1  C   UNL     1      -2.306   2.828   8.081  1.00  0.00     0.245 C 
ATOM      2  O   UNL     1      -3.287   2.941   7.377  1.00  0.00    -0.273 OA
ATOM      3  N   UNL     1      -1.095   2.635   7.522  1.00  0.00    -0.300 N 
ATOM      4  H   UNL     1      -0.261   2.539   8.119  1.00  0.00     0.172 HD
ENDROOT
BRANCH   1   5
ATOM      5  C   UNL     1      -2.440   2.903   9.580  1.00  0.00     0.216 C 
BRANCH   5   6
ATOM      6  N   UNL     1      -3.846   3.116   9.934  1.00  0.00    -0.352 N 
ATOM      7  H   UNL     1      -4.558   3.190   9.193  1.00  0.00     0.163 HD
BRANCH   6   8
ATOM      8  C   UNL     1      -4.217   3.219  11.264  1.00  0.00     0.183 A 
ATOM      9  C   UNL     1      -5.592   3.484  13.102  1.00  0.00     0.161 A 
ATOM     10  N   UNL     1      -5.413   3.413  11.781  1.00  0.00    -0.213 NA
ATOM     11  C   UNL     1      -4.503   3.360  13.929  1.00  0.00     0.104 A 
ATOM     12  S   UNL     1      -3.198   3.129  12.729  1.00  0.00    -0.105 S 
BRANCH   9  13
ATOM     13  C   UNL     1      -6.934   3.697  13.663  1.00  0.00     0.357 C 
ATOM     14  O   UNL     1      -7.087   3.764  14.867  1.00  0.00    -0.244 OA
BRANCH  13  15
ATOM     15  O   UNL     1      -7.997   3.817  12.841  1.00  0.00    -0.461 OA
BRANCH  15  16
ATOM     16  C   UNL     1      -9.292   4.025  13.465  1.00  0.00     0.230 C 
ATOM     17  C   UNL     1     -10.367   4.137  12.382  1.00  0.00     0.049 C 
ENDBRANCH  15  16
ENDBRANCH  13  15
ENDBRANCH   9  13
ENDBRANCH   6   8
ENDBRANCH   5   6
ENDBRANCH   1   5
BRANCH   3  18
ATOM     18  C   UNL     1      -0.970   2.566   6.139  1.00  0.00     0.189 A 
ATOM     19  S   UNL     1       0.459   2.327   5.183  1.00  0.00    -0.101 S 
ATOM     20  N   UNL     1      -1.908   2.664   5.217  1.00  0.00    -0.225 NA
ATOM     21  C   UNL     1      -0.324   2.377   3.578  1.00  0.00     0.030 A 
ATOM     22  C   UNL     1      -1.617   2.574   3.934  1.00  0.00     0.057 A 
BRANCH  21  23
ATOM     23  C   UNL     1       0.283   2.239   2.205  1.00  0.00     0.049 C 
BRANCH  23  24
ATOM     24  C   UNL     1      -0.729   1.579   1.266  1.00  0.00     0.006 C 
BRANCH  24  25
ATOM     25  C   UNL     1      -0.013   1.086   0.008  1.00  0.00     0.000 C 
BRANCH  25  26
ATOM     26  C   UNL     1      -0.753   1.593  -1.231  1.00  0.00     0.000 C 
BRANCH  26  27
ATOM     27  C   UNL     1      -1.381   2.955  -0.928  1.00  0.00     0.000 CG0
ATOM     28  G   UNL     1      -2.837   2.762  -0.501  1.00  0.00     0.000 G0
ENDBRANCH  26  27
ENDBRANCH  25  26
ENDBRANCH  24  25
ENDBRANCH  23  24
ENDBRANCH  21  23
BRANCH  22  29
ATOM     29  C   UNL     1      -2.695   2.689   2.888  1.00  0.00     0.057 C 
BRANCH  29  30
ATOM     30  C   UNL     1      -2.442   3.931   2.030  1.00  0.00     0.006 C 
BRANCH  30  31
ATOM     31  C   UNL     1      -3.717   4.292   1.266  1.00  0.00     0.000 C 
BRANCH  31  32
ATOM     32  C   UNL     1      -3.476   4.126  -0.235  1.00  0.00     0.000 C 
BRANCH  32  33
ATOM     33  C   UNL     1      -2.837   2.762  -0.501  1.00  0.00     0.000 CG0
ATOM     34  G   UNL     1      -1.381   2.955  -0.928  1.00  0.00     0.000 G0
ENDBRANCH  32  33
ENDBRANCH  31  32
ENDBRANCH  30  31
ENDBRANCH  29  30
ENDBRANCH  22  29
ENDBRANCH   3  18
TORSDOF 7
