REMARK SMILES C=CCOc1cccc([C@@H]2c3c(-c4c(C)cc(C)cc4O)n[nH]c3C(=O)N2Cc2ccco2)c1
REMARK SMILES IDX 9 1 8 2 7 3 6 4 5 5 34 6 10 7 12 8 22 9 11 10 23 11 24 12
REMARK SMILES IDX 27 14 25 15 26 16 13 17 18 18 17 19 19 20 16 21 20 22 14 23
REMARK SMILES IDX 15 24 21 25 28 27 29 28 33 29 30 30 32 31 31 32 4 33 3 34
REMARK SMILES IDX 2 35 1 36
REMARK H PARENT 23 13 21 26
REMARK Flexibility Score: inf
ROOT
ATOM      1  C   UNL     1      -4.338   3.852  -1.517  1.00  0.00    -0.017 A 
ATOM      2  C   UNL     1      -4.922   3.476  -2.713  1.00  0.00     0.006 A 
ATOM      3  C   UNL     1      -4.623   4.161  -3.876  1.00  0.00     0.004 A 
ATOM      4  C   UNL     1      -3.732   5.216  -3.848  1.00  0.00     0.046 A 
ATOM      5  C   UNL     1      -3.141   5.592  -2.651  1.00  0.00     0.120 A 
ATOM      6  C   UNL     1      -3.446   4.906  -1.484  1.00  0.00     0.052 A 
ENDROOT
BRANCH   1   7
ATOM      7  C   UNL     1      -4.671   3.107  -0.250  1.00  0.00     0.151 C 
ATOM      8  C   UNL     1      -2.910   0.950  -0.367  1.00  0.00     0.102 A 
ATOM      9  N   UNL     1      -3.280  -0.314  -0.327  1.00  0.00    -0.174 NA
ATOM     10  C   UNL     1      -4.069   1.729  -0.286  1.00  0.00     0.038 A 
ATOM     11  N   UNL     1      -4.559  -0.411  -0.234  1.00  0.00    -0.272 N 
ATOM     12  C   UNL     1      -5.119   0.835  -0.207  1.00  0.00     0.129 A 
ATOM     13  H   UNL     1      -5.083  -1.296  -0.186  1.00  0.00     0.190 HD
ATOM     14  N   UNL     1      -6.123   2.914  -0.141  1.00  0.00    -0.319 N 
ATOM     15  C   UNL     1      -6.372   1.593  -0.125  1.00  0.00     0.273 C 
ATOM     16  O   UNL     1      -7.480   1.096  -0.041  1.00  0.00    -0.267 OA
BRANCH   8  17
ATOM     17  C   UNL     1      -1.518   1.455  -0.473  1.00  0.00     0.047 A 
ATOM     18  C   UNL     1       2.491   2.915  -0.790  1.00  0.00     0.044 C 
ATOM     19  C   UNL     1       1.080   2.401  -0.675  1.00  0.00    -0.047 A 
ATOM     20  C   UNL     1       0.238   2.913   0.294  1.00  0.00     0.050 A 
ATOM     21  C   UNL     1       0.632   1.418  -1.540  1.00  0.00     0.007 A 
ATOM     22  C   UNL     1      -1.061   2.443   0.403  1.00  0.00     0.125 A 
ATOM     23  C   UNL     1      -0.660   0.942  -1.442  1.00  0.00    -0.038 A 
ATOM     24  C   UNL     1      -1.143  -0.128  -2.387  1.00  0.00     0.045 C 
BRANCH  22  25
ATOM     25  O   UNL     1      -1.890   2.946   1.355  1.00  0.00    -0.507 OA
ATOM     26  H   UNL     1      -2.191   2.157   1.872  1.00  0.00     0.293 HD
ENDBRANCH  22  25
ENDBRANCH   8  17
BRANCH  14  27
ATOM     27  C   UNL     1      -7.127   3.978  -0.073  1.00  0.00     0.196 C 
BRANCH  27  28
ATOM     28  C   UNL     1      -7.576   4.336  -1.466  1.00  0.00     0.123 A 
ATOM     29  O   UNL     1      -7.025   5.275  -2.252  1.00  0.00    -0.467 OA
ATOM     30  C   UNL     1      -8.601   3.773  -2.131  1.00  0.00     0.047 A 
ATOM     31  C   UNL     1      -7.679   5.318  -3.425  1.00  0.00     0.195 A 
ATOM     32  C   UNL     1      -8.667   4.406  -3.394  1.00  0.00     0.042 A 
ENDBRANCH  27  28
ENDBRANCH  14  27
ENDBRANCH   1   7
BRANCH   5  33
ATOM     33  O   UNL     1      -2.263   6.629  -2.621  1.00  0.00    -0.490 OA
BRANCH  33  34
ATOM     34  C   UNL     1      -1.996   7.289  -3.860  1.00  0.00     0.257 C 
BRANCH  34  35
ATOM     35  C   UNL     1      -1.008   8.403  -3.633  1.00  0.00     0.006 C 
ATOM     36  C   UNL     1       0.000   8.563  -4.454  1.00  0.00     0.007 C 
ENDBRANCH  34  35
ENDBRANCH  33  34
ENDBRANCH   5  33
TORSDOF 8
