REMARK SMILES O=C(N/N=C\c1ccc(Cl)cc1)[C@H](C(=O)N/N=C/c1ccc(Cl)cc1)[C@@H]1C=CCCC1
REMARK SMILES IDX 13 1 14 2 16 3 15 5 17 6 18 7 19 8 20 9 21 10 25 11 22 12
REMARK SMILES IDX 24 13 23 14 26 15 27 16 31 17 28 18 30 19 29 20 2 21 1 22
REMARK SMILES IDX 3 23 4 25 5 26 6 27 12 28 7 29 11 30 8 31 9 32 10 33
REMARK H PARENT 16 4 3 24
REMARK Flexibility Score: inf
ROOT
ATOM      1  C   UNL     1       2.760  -2.940  -1.313  1.00  0.00     0.178 C 
ENDROOT
BRANCH   1   2
ATOM      2  C   UNL     1       1.453  -2.206  -1.159  1.00  0.00     0.253 C 
ATOM      3  N   UNL     1       1.371  -0.901  -1.487  1.00  0.00    -0.246 N 
ATOM      4  H   UNL     1       2.219  -0.385  -1.764  1.00  0.00     0.193 HD
ATOM      5  O   UNL     1       0.476  -2.789  -0.741  1.00  0.00    -0.272 OA
BRANCH   3   6
ATOM      6  N   UNL     1       0.133  -0.247  -1.452  1.00  0.00    -0.181 NA
ATOM      7  C   UNL     1       0.053   1.009  -1.768  1.00  0.00     0.141 C 
BRANCH   7   8
ATOM      8  C   UNL     1      -1.251   1.696  -1.738  1.00  0.00    -0.005 A 
ATOM      9  C   UNL     1      -2.405   0.996  -1.374  1.00  0.00     0.011 A 
ATOM     10  C   UNL     1      -3.620   1.646  -1.341  1.00  0.00     0.021 A 
ATOM     11  C   UNL     1      -1.340   3.049  -2.077  1.00  0.00     0.011 A 
ATOM     12  C   UNL     1      -3.702   2.987  -1.679  1.00  0.00     0.041 A 
ATOM     13  C   UNL     1      -2.563   3.685  -2.046  1.00  0.00     0.021 A 
ATOM     14  Cl  UNL     1      -5.237   3.796  -1.643  1.00  0.00    -0.084 Cl
ENDBRANCH   7   8
ENDBRANCH   3   6
ENDBRANCH   1   2
BRANCH   1  15
ATOM     15  C   UNL     1       3.138  -3.005  -2.794  1.00  0.00     0.033 C 
ATOM     16  C   UNL     1       3.477  -1.627  -3.282  1.00  0.00    -0.027 C 
ATOM     17  C   UNL     1       1.962  -3.573  -3.592  1.00  0.00     0.009 C 
ATOM     18  C   UNL     1       3.090  -1.145  -4.419  1.00  0.00    -0.031 C 
ATOM     19  C   UNL     1       2.257  -3.389  -5.087  1.00  0.00     0.005 C 
ATOM     20  C   UNL     1       2.238  -1.892  -5.403  1.00  0.00     0.027 C 
ENDBRANCH   1  15
BRANCH   1  21
ATOM     21  C   UNL     1       2.618  -4.338  -0.768  1.00  0.00     0.253 C 
ATOM     22  O   UNL     1       1.526  -4.753  -0.440  1.00  0.00    -0.272 OA
ATOM     23  N   UNL     1       3.704  -5.127  -0.646  1.00  0.00    -0.246 N 
ATOM     24  H   UNL     1       4.640  -4.750  -0.851  1.00  0.00     0.193 HD
BRANCH  23  25
ATOM     25  N   UNL     1       3.558  -6.461  -0.241  1.00  0.00    -0.181 NA
ATOM     26  C   UNL     1       4.608  -7.186  -0.007  1.00  0.00     0.141 C 
BRANCH  26  27
ATOM     27  C   UNL     1       5.889  -6.540   0.334  1.00  0.00    -0.005 A 
ATOM     28  C   UNL     1       5.933  -5.172   0.613  1.00  0.00     0.011 A 
ATOM     29  C   UNL     1       7.064  -7.295   0.385  1.00  0.00     0.011 A 
ATOM     30  C   UNL     1       7.134  -4.574   0.931  1.00  0.00     0.021 A 
ATOM     31  C   UNL     1       8.260  -6.683   0.699  1.00  0.00     0.021 A 
ATOM     32  C   UNL     1       8.296  -5.326   0.974  1.00  0.00     0.041 A 
ATOM     33  Cl  UNL     1       9.804  -4.566   1.375  1.00  0.00    -0.084 Cl
ENDBRANCH  26  27
ENDBRANCH  23  25
ENDBRANCH   1  21
TORSDOF 7
