REMARK SMILES O=C(CC[C@H]1C[N@H+](Cc2ccncc2)CC[C@H]1N1CCN(c2ccccc2F)CC1)NC1CCCCCC1
REMARK SMILES IDX 2 1 1 2 31 3 3 5 4 6 5 7 17 8 16 9 6 10 15 11 7 12 18 14
REMARK SMILES IDX 21 15 29 16 20 17 30 18 19 19 22 20 24 21 23 22 25 23 26 24
REMARK SMILES IDX 27 25 28 26 8 27 9 28 14 29 10 30 13 31 11 32 12 33 32 34
REMARK SMILES IDX 38 35 37 36 36 37 33 39 34 40 35 41
REMARK H PARENT 31 4 7 13
REMARK Flexibility Score: 80.00
ROOT
ATOM      1  C   UNL     1       1.640   5.974   1.412  1.00  0.00     0.220 C 
ATOM      2  O   UNL     1       2.648   5.299   1.434  1.00  0.00    -0.275 OA
ATOM      3  N   UNL     1       1.729   7.319   1.436  1.00  0.00    -0.353 N 
ATOM      4  H   UNL     1       0.873   7.892   1.418  1.00  0.00     0.163 HD
ENDROOT
BRANCH   1   5
ATOM      5  C   UNL     1       0.289   5.309   1.360  1.00  0.00     0.100 C 
BRANCH   5   6
ATOM      6  C   UNL     1       0.469   3.789   1.342  1.00  0.00     0.021 C 
BRANCH   6   7
ATOM      7  C   UNL     1      -0.903   3.114   1.289  1.00  0.00     0.062 C 
ATOM      8  C   UNL     1      -0.731   1.598   1.414  1.00  0.00     0.071 C 
ATOM      9  C   UNL     1       0.087   1.085   0.226  1.00  0.00     0.081 C 
ATOM     10  C   UNL     1      -1.581   3.438  -0.045  1.00  0.00     0.267 C 
ATOM     11  C   UNL     1      -0.619   1.468  -1.077  1.00  0.00     0.264 C 
ATOM     12  N   UNL     1      -0.758   2.928  -1.149  1.00  0.00    -0.331 N 
ATOM     13  H   UNL     1       0.182   3.338  -1.056  1.00  0.00     0.348 HD
BRANCH   8  14
ATOM     14  N   UNL     1      -0.028   1.285   2.666  1.00  0.00    -0.296 NA
ATOM     15  N   UNL     1       0.289   0.041   5.207  1.00  0.00    -0.367 N 
ATOM     16  C   UNL     1       1.053  -0.428   4.042  1.00  0.00     0.132 C 
ATOM     17  C   UNL     1       0.010   1.480   5.106  1.00  0.00     0.132 C 
ATOM     18  C   UNL     1       0.252  -0.155   2.767  1.00  0.00     0.106 C 
ATOM     19  C   UNL     1      -0.791   1.753   3.830  1.00  0.00     0.106 C 
BRANCH  15  20
ATOM     20  C   UNL     1       0.958  -0.257   6.398  1.00  0.00     0.073 A 
ATOM     21  C   UNL     1       2.852   0.022   7.843  1.00  0.00     0.002 A 
ATOM     22  C   UNL     1       2.193   0.319   6.665  1.00  0.00     0.029 A 
ATOM     23  C   UNL     1       2.284  -0.847   8.755  1.00  0.00     0.003 A 
ATOM     24  C   UNL     1       1.054  -1.423   8.494  1.00  0.00     0.041 A 
ATOM     25  C   UNL     1       0.386  -1.127   7.320  1.00  0.00     0.146 A 
ATOM     26  F   UNL     1      -0.818  -1.686   7.067  1.00  0.00    -0.205 F 
ENDBRANCH  15  20
ENDBRANCH   8  14
BRANCH  12  27
ATOM     27  C   UNL     1      -1.307   3.341  -2.448  1.00  0.00     0.299 C 
BRANCH  27  28
ATOM     28  C   UNL     1      -2.722   2.839  -2.578  1.00  0.00     0.009 A 
ATOM     29  C   UNL     1      -3.791   3.610  -2.149  1.00  0.00     0.029 A 
ATOM     30  C   UNL     1      -2.986   1.597  -3.135  1.00  0.00     0.029 A 
ATOM     31  C   UNL     1      -5.075   3.117  -2.285  1.00  0.00     0.111 A 
ATOM     32  C   UNL     1      -4.296   1.167  -3.234  1.00  0.00     0.111 A 
ATOM     33  N   UNL     1      -5.288   1.928  -2.815  1.00  0.00    -0.265 NA
ENDBRANCH  27  28
ENDBRANCH  12  27
ENDBRANCH   6   7
ENDBRANCH   5   6
ENDBRANCH   1   5
BRANCH   3  34
ATOM     34  C   UNL     1       3.042   7.965   1.487  1.00  0.00     0.082 C 
BRANCH  34  35
ATOM     35  C   UNL     1       2.932   9.302   0.921  1.00  0.00     0.025 C 
BRANCH  35  36
ATOM     36  C   UNL     1       4.288  10.034   0.874  1.00  0.00     0.002 C 
BRANCH  36  37
ATOM     37  C   UNL     1       4.582  10.586   2.243  1.00  0.00     0.000 CG0
ATOM     38  G   UNL     1       5.449   9.635   3.089  1.00  0.00     0.000 G0
ENDBRANCH  36  37
ENDBRANCH  35  36
ENDBRANCH  34  35
BRANCH  34  39
ATOM     39  C   UNL     1       3.533   7.984   2.949  1.00  0.00     0.025 C 
BRANCH  39  40
ATOM     40  C   UNL     1       5.028   8.159   2.949  1.00  0.00     0.002 C 
BRANCH  40  41
ATOM     41  C   UNL     1       5.449   9.635   3.089  1.00  0.00     0.000 CG0
ATOM     42  G   UNL     1       4.582  10.586   2.243  1.00  0.00     0.000 G0
ENDBRANCH  40  41
ENDBRANCH  39  40
ENDBRANCH  34  39
ENDBRANCH   3  34
TORSDOF 8
