REMARK SMILES Cc1ccc2[n-]c(C(=O)O[C@H](C)C(=O)N[C@@H](C)c3ccccc3C)cc(=O)c2c1
REMARK SMILES IDX 11 1 12 2 10 3 8 4 9 5 7 6 1 7 2 8 29 9 3 10 28 11 4 12 5 13
REMARK SMILES IDX 26 14 6 15 27 16 25 17 13 18 14 19 15 20 16 22 17 23 18 24
REMARK SMILES IDX 23 25 19 26 22 27 24 28 20 29 21 30
REMARK H PARENT 15 21
REMARK Flexibility Score: inf
ROOT
ATOM      1  C   UNL     1      -3.751  -0.577   2.200  1.00  0.00     0.262 C 
ATOM      2  C   UNL     1      -4.506  -0.626   0.870  1.00  0.00     0.064 C 
ENDROOT
BRANCH   1   3
ATOM      3  O   UNL     1      -3.733  -1.901   2.796  1.00  0.00    -0.450 OA
BRANCH   3   4
ATOM      4  C   UNL     1      -4.752  -2.214   3.620  1.00  0.00     0.316 C 
ATOM      5  O   UNL     1      -5.630  -1.404   3.835  1.00  0.00    -0.248 OA
BRANCH   4   6
ATOM      6  C   UNL     1      -4.800  -3.547   4.265  1.00  0.00    -0.045 A 
ATOM      7  C   UNL     1      -3.797  -9.583   6.368  1.00  0.00     0.044 C 
ATOM      8  C   UNL     1      -3.803  -8.212   5.743  1.00  0.00    -0.050 A 
ATOM      9  C   UNL     1      -4.821  -7.345   6.024  1.00  0.00     0.014 A 
ATOM     10  C   UNL     1      -2.775  -7.841   4.886  1.00  0.00     0.002 A 
ATOM     11  C   UNL     1      -4.827  -6.075   5.444  1.00  0.00     0.007 A 
ATOM     12  C   UNL     1      -2.761  -6.594   4.303  1.00  0.00    -0.015 A 
ATOM     13  C   UNL     1      -3.788  -5.693   4.574  1.00  0.00    -0.125 A 
ATOM     14  C   UNL     1      -5.904  -5.111   5.721  1.00  0.00     0.183 A 
ATOM     15  N   UNL     1      -3.800  -4.441   4.007  1.00  0.00    -0.651 NA
ATOM     16  O   UNL     1      -6.826  -5.395   6.467  1.00  0.00    -0.289 OA
ATOM     17  C   UNL     1      -5.833  -3.837   5.096  1.00  0.00     0.044 A 
ENDBRANCH   4   6
ENDBRANCH   3   4
ENDBRANCH   1   3
BRANCH   1  18
ATOM     18  C   UNL     1      -2.337  -0.116   1.958  1.00  0.00     0.261 C 
ATOM     19  O   UNL     1      -1.409  -0.866   2.173  1.00  0.00    -0.271 OA
ATOM     20  N   UNL     1      -2.104   1.131   1.502  1.00  0.00    -0.346 N 
ATOM     21  H   UNL     1      -2.892   1.769   1.319  1.00  0.00     0.164 HD
BRANCH  20  22
ATOM     22  C   UNL     1      -0.729   1.579   1.267  1.00  0.00     0.109 C 
ATOM     23  C   UNL     1      -0.724   2.667   0.191  1.00  0.00     0.036 C 
BRANCH  22  24
ATOM     24  C   UNL     1      -0.156   2.135   2.545  1.00  0.00    -0.023 A 
ATOM     25  C   UNL     1       1.214   2.206   2.715  1.00  0.00    -0.046 A 
ATOM     26  C   UNL     1      -1.000   2.579   3.546  1.00  0.00     0.006 A 
ATOM     27  C   UNL     1       1.740   2.716   3.888  1.00  0.00     0.004 A 
ATOM     28  C   UNL     1       2.135   1.727   1.622  1.00  0.00     0.045 C 
ATOM     29  C   UNL     1      -0.475   3.085   4.720  1.00  0.00     0.000 A 
ATOM     30  C   UNL     1       0.895   3.155   4.890  1.00  0.00     0.000 A 
ENDBRANCH  22  24
ENDBRANCH  20  22
ENDBRANCH   1  18
TORSDOF 6
