REMARK SMILES Oc1ccccc1N1CC[NH+](C[C@H](O)Cn2c3ccccc3c3ccccc32)CC1
REMARK SMILES IDX 12 1 13 2 15 3 16 4 20 5 21 6 19 7 22 8 18 9 17 10 23 11
REMARK SMILES IDX 28 12 24 13 27 14 25 15 26 16 14 17 11 19 29 20 10 21 30 23
REMARK SMILES IDX 9 24 8 25 7 26 2 27 6 28 3 29 5 30 4 31 1 32
REMARK H PARENT 14 18 11 22 1 33
REMARK Flexibility Score: inf
ROOT
ATOM      1  C   UNL     1       6.527   0.474  -0.020  1.00  0.00     0.296 C 
ENDROOT
BRANCH   1   2
ATOM      2  C   UNL     1       7.398   0.964   1.139  1.00  0.00     0.189 C 
BRANCH   2   3
ATOM      3  C   UNL     1       8.735   0.221   1.121  1.00  0.00     0.160 C 
BRANCH   3   4
ATOM      4  N   UNL     1       9.521   0.603   2.297  1.00  0.00    -0.338 N 
ATOM      5  C   UNL     1      12.291   3.606   2.987  1.00  0.00     0.001 A 
ATOM      6  C   UNL     1      11.906   2.694   3.945  1.00  0.00     0.011 A 
ATOM      7  C   UNL     1      11.741   3.556   1.715  1.00  0.00     0.002 A 
ATOM      8  C   UNL     1      10.970   1.712   3.630  1.00  0.00     0.007 A 
ATOM      9  C   UNL     1      10.811   2.592   1.390  1.00  0.00     0.027 A 
ATOM     10  C   UNL     1      10.415   1.657   2.343  1.00  0.00     0.049 A 
ATOM     11  C   UNL     1      10.365   0.605   4.393  1.00  0.00     0.007 A 
ATOM     12  C   UNL     1       9.479  -0.043   3.520  1.00  0.00     0.049 A 
ATOM     13  C   UNL     1      10.515   0.149   5.701  1.00  0.00     0.011 A 
ATOM     14  C   UNL     1       8.756  -1.142   3.975  1.00  0.00     0.027 A 
ATOM     15  C   UNL     1       9.790  -0.941   6.133  1.00  0.00     0.001 A 
ATOM     16  C   UNL     1       8.915  -1.583   5.271  1.00  0.00     0.002 A 
ENDBRANCH   3   4
ENDBRANCH   2   3
BRANCH   2  17
ATOM     17  O   UNL     1       7.630   2.367   0.999  1.00  0.00    -0.385 OA
ATOM     18  H   UNL     1       8.093   2.542   0.141  1.00  0.00     0.211 HD
ENDBRANCH   2  17
ENDBRANCH   1   2
BRANCH   1  19
ATOM     19  N   UNL     1       5.243   1.187  -0.003  1.00  0.00    -0.330 N 
ATOM     20  C   UNL     1       4.461   0.836   1.191  1.00  0.00     0.284 C 
ATOM     21  C   UNL     1       4.476   0.920  -1.228  1.00  0.00     0.284 C 
ATOM     22  H   UNL     1       5.443   2.197   0.033  1.00  0.00     0.348 HD
ATOM     23  C   UNL     1       3.170   1.658   1.211  1.00  0.00     0.178 C 
ATOM     24  C   UNL     1       3.185   1.742  -1.208  1.00  0.00     0.178 C 
ATOM     25  N   UNL     1       2.403   1.391  -0.014  1.00  0.00    -0.357 N 
BRANCH  25  26
ATOM     26  C   UNL     1       1.179   2.071   0.002  1.00  0.00     0.079 A 
ATOM     27  C   UNL     1      -0.016   1.356   0.009  1.00  0.00     0.138 A 
ATOM     28  C   UNL     1       1.155   3.458   0.010  1.00  0.00     0.030 A 
ATOM     29  C   UNL     1      -1.224   2.034   0.019  1.00  0.00     0.048 A 
ATOM     30  C   UNL     1      -0.055   4.126   0.025  1.00  0.00     0.002 A 
ATOM     31  C   UNL     1      -1.241   3.416   0.032  1.00  0.00     0.004 A 
BRANCH  27  32
ATOM     32  O   UNL     1       0.002  -0.004   0.002  1.00  0.00    -0.506 OA
ATOM     33  H   UNL     1       0.544  -0.255   0.791  1.00  0.00     0.293 HD
ENDBRANCH  27  32
ENDBRANCH  25  26
ENDBRANCH   1  19
TORSDOF 7
