REMARK SMILES CCn1c(CCC(=O)NCCc2c(C)cc(C(C)(C)C)cc2C)nc2cc(S(N)(=O)=O)ccc21
REMARK SMILES IDX 7 1 8 2 9 3 6 5 5 6 4 7 3 8 34 9 24 10 25 11 33 12 26 13
REMARK SMILES IDX 32 14 27 15 2 16 1 17 28 18 30 19 31 20 29 21 10 24 11 25
REMARK SMILES IDX 12 26 13 27 22 28 15 29 14 30 21 31 23 32 16 33 17 34 18 35
REMARK SMILES IDX 19 36 20 37
REMARK H PARENT 9 4 29 22 29 23
REMARK Flexibility Score: inf
ROOT
ATOM      1  C   UNL     1      -1.535   9.959  -5.246  1.00  0.00     0.220 C 
ATOM      2  O   UNL     1      -0.466  10.136  -5.789  1.00  0.00    -0.275 OA
ATOM      3  N   UNL     1      -2.458  10.941  -5.239  1.00  0.00    -0.356 N 
ATOM      4  H   UNL     1      -3.367  10.790  -4.777  1.00  0.00     0.163 HD
ENDROOT
BRANCH   1   5
ATOM      5  C   UNL     1      -1.832   8.641  -4.578  1.00  0.00     0.108 C 
BRANCH   5   6
ATOM      6  C   UNL     1      -0.627   7.710  -4.729  1.00  0.00     0.085 C 
BRANCH   6   7
ATOM      7  C   UNL     1      -0.924   6.392  -4.061  1.00  0.00     0.110 A 
ATOM      8  N   UNL     1      -1.499   5.321  -4.672  1.00  0.00    -0.328 N 
ATOM      9  C   UNL     1      -1.599   4.316  -3.730  1.00  0.00     0.068 A 
ATOM     10  N   UNL     1      -0.667   6.113  -2.817  1.00  0.00    -0.233 NA
ATOM     11  C   UNL     1      -1.060   4.842  -2.544  1.00  0.00     0.090 A 
ATOM     12  C   UNL     1      -2.087   3.017  -3.751  1.00  0.00     0.030 A 
ATOM     13  C   UNL     1      -1.027   4.049  -1.393  1.00  0.00     0.052 A 
ATOM     14  C   UNL     1      -2.039   2.251  -2.605  1.00  0.00     0.024 A 
ATOM     15  C   UNL     1      -1.507   2.771  -1.433  1.00  0.00     0.084 A 
BRANCH   8  16
ATOM     16  C   UNL     1      -1.931   5.247  -6.070  1.00  0.00     0.120 C 
ATOM     17  C   UNL     1      -3.386   5.706  -6.178  1.00  0.00     0.028 C 
ENDBRANCH   8  16
BRANCH  15  18
ATOM     18  S   UNL     1      -1.456   1.774   0.019  1.00  0.00     0.238 S 
ATOM     19  O   UNL     1      -2.472   0.792  -0.128  1.00  0.00    -0.207 OA
ATOM     20  O   UNL     1      -1.413   2.667   1.123  1.00  0.00    -0.207 OA
BRANCH  18  21
ATOM     21  N   UNL     1      -0.011   0.966   0.007  1.00  0.00    -0.225 NA
ATOM     22  H   UNL     1       0.003  -0.064   0.006  1.00  0.00     0.137 HD
ATOM     23  H   UNL     1       0.874   1.493   0.002  1.00  0.00     0.137 HD
ENDBRANCH  18  21
ENDBRANCH  15  18
ENDBRANCH   6   7
ENDBRANCH   5   6
ENDBRANCH   1   5
BRANCH   3  24
ATOM     24  C   UNL     1      -2.170  12.222  -5.888  1.00  0.00     0.120 C 
BRANCH  24  25
ATOM     25  C   UNL     1      -3.375  13.153  -5.737  1.00  0.00     0.057 C 
BRANCH  25  26
ATOM     26  C   UNL     1      -3.078  14.471  -6.405  1.00  0.00    -0.040 A 
ATOM     27  C   UNL     1      -3.394  14.657  -7.738  1.00  0.00    -0.047 A 
ATOM     28  C   UNL     1      -2.495  15.496  -5.684  1.00  0.00    -0.047 A 
ATOM     29  C   UNL     1      -3.122  15.866  -8.351  1.00  0.00     0.008 A 
ATOM     30  C   UNL     1      -4.035  13.542  -8.523  1.00  0.00     0.044 C 
ATOM     31  C   UNL     1      -2.219  16.703  -6.297  1.00  0.00     0.008 A 
ATOM     32  C   UNL     1      -2.156  15.295  -4.229  1.00  0.00     0.044 C 
ATOM     33  C   UNL     1      -2.535  16.889  -7.630  1.00  0.00    -0.042 A 
BRANCH  33  34
ATOM     34  C   UNL     1      -2.238  18.207  -8.298  1.00  0.00    -0.013 C 
ATOM     35  C   UNL     1      -3.540  18.820  -8.817  1.00  0.00     0.016 C 
ATOM     36  C   UNL     1      -1.593  19.157  -7.287  1.00  0.00     0.016 C 
ATOM     37  C   UNL     1      -1.279  17.981  -9.469  1.00  0.00     0.016 C 
ENDBRANCH  33  34
ENDBRANCH  25  26
ENDBRANCH  24  25
ENDBRANCH   3  24
TORSDOF 10
