REMARK SMILES Cc1cc(C)cc(OCC(=O)N/N=C\c2cc(/N=N/c3cccc4ccccc34)ccc2O)c1
REMARK SMILES IDX 10 1 11 2 12 3 9 5 8 6 7 7 1 8 2 9 34 10 3 11 4 12 6 13 5 14
REMARK SMILES IDX 13 15 14 16 15 17 32 18 16 19 31 20 17 21 30 22 33 23 18 25
REMARK SMILES IDX 19 26 20 27 29 28 21 29 24 30 28 31 22 32 23 33 25 34 27 35
REMARK SMILES IDX 26 36
REMARK H PARENT 12 4 33 24
REMARK Flexibility Score: inf
ROOT
ATOM      1  C   UNL     1       8.940   9.594   1.159  1.00  0.00     0.277 C 
ATOM      2  O   UNL     1       9.940   8.980   0.853  1.00  0.00    -0.269 OA
ATOM      3  N   UNL     1       7.724   9.052   0.949  1.00  0.00    -0.244 N 
ATOM      4  H   UNL     1       6.875   9.574   1.209  1.00  0.00     0.193 HD
ENDROOT
BRANCH   1   5
ATOM      5  C   UNL     1       9.057  10.964   1.776  1.00  0.00     0.331 C 
BRANCH   5   6
ATOM      6  O   UNL     1      10.436  11.316   1.896  1.00  0.00    -0.484 OA
BRANCH   6   7
ATOM      7  C   UNL     1      10.719  12.531   2.437  1.00  0.00     0.120 A 
ATOM      8  C   UNL     1       8.860  15.505   3.844  1.00  0.00     0.044 C 
ATOM      9  C   UNL     1       9.978  14.600   3.395  1.00  0.00    -0.047 A 
ATOM     10  C   UNL     1       9.689  13.366   2.845  1.00  0.00     0.049 A 
ATOM     11  C   UNL     1      11.293  15.002   3.540  1.00  0.00     0.007 A 
ATOM     12  C   UNL     1      12.321  14.171   3.135  1.00  0.00    -0.047 A 
ATOM     13  C   UNL     1      12.037  12.937   2.584  1.00  0.00     0.049 A 
ATOM     14  C   UNL     1      13.753  14.613   3.293  1.00  0.00     0.044 C 
ENDBRANCH   6   7
ENDBRANCH   5   6
ENDBRANCH   1   5
BRANCH   3  15
ATOM     15  N   UNL     1       7.615   7.778   0.375  1.00  0.00    -0.180 NA
ATOM     16  C   UNL     1       6.447   7.300   0.073  1.00  0.00     0.145 C 
BRANCH  16  17
ATOM     17  C   UNL     1       5.264   8.180   0.090  1.00  0.00     0.039 A 
ATOM     18  C   UNL     1       3.988   7.639   0.311  1.00  0.00     0.124 A 
ATOM     19  C   UNL     1       5.410   9.551  -0.108  1.00  0.00     0.044 A 
ATOM     20  C   UNL     1       2.875   8.468   0.328  1.00  0.00     0.049 A 
ATOM     21  C   UNL     1       4.283  10.375  -0.095  1.00  0.00     0.087 A 
ATOM     22  C   UNL     1       3.016   9.823   0.127  1.00  0.00     0.034 A 
BRANCH  18  23
ATOM     23  O   UNL     1       3.842   6.304   0.510  1.00  0.00    -0.507 OA
ATOM     24  H   UNL     1       4.430   6.096   1.279  1.00  0.00     0.293 HD
ENDBRANCH  18  23
BRANCH  21  25
ATOM     25  N   UNL     1       4.418  11.719  -0.293  1.00  0.00    -0.151 NA
ATOM     26  N   UNL     1       3.378  12.481  -0.275  1.00  0.00    -0.150 NA
BRANCH  26  27
ATOM     27  C   UNL     1       3.513  13.822  -0.473  1.00  0.00     0.093 A 
ATOM     28  C   UNL     1       2.343  14.700  -0.462  1.00  0.00     0.009 A 
ATOM     29  C   UNL     1       4.765  14.385  -0.694  1.00  0.00     0.031 A 
ATOM     30  C   UNL     1       2.529  16.089  -0.667  1.00  0.00    -0.016 A 
ATOM     31  C   UNL     1       1.055  14.199  -0.240  1.00  0.00     0.011 A 
ATOM     32  C   UNL     1       4.899  15.752  -0.895  1.00  0.00     0.003 A 
ATOM     33  C   UNL     1       3.824  16.588  -0.885  1.00  0.00     0.009 A 
ATOM     34  C   UNL     1       1.410  16.940  -0.653  1.00  0.00     0.009 A 
ATOM     35  C   UNL     1      -0.008  15.053  -0.233  1.00  0.00     0.001 A 
ATOM     36  C   UNL     1       0.171  16.419  -0.439  1.00  0.00     0.001 A 
ENDBRANCH  26  27
ENDBRANCH  21  25
ENDBRANCH  16  17
ENDBRANCH   3  15
TORSDOF 8
