REMARK SMILES CCOC(=O)c1sc2nc(C)c3c(c2c1N)[C@H](C)[C@H]1[C@@H]2CC=C4C[C@@H](O)CC[C@@]4(C)[C@@H]2CC[C@]31C
REMARK SMILES IDX 4 1 5 2 3 3 2 4 1 5 6 6 7 7 15 8 8 9 14 10 9 11 13 12 10 13
REMARK SMILES IDX 17 14 12 15 11 16 19 17 18 18 34 19 20 20 33 21 35 22 31 23
REMARK SMILES IDX 21 24 32 25 29 26 22 27 23 28 28 29 30 30 24 31 27 32 25 33
REMARK SMILES IDX 16 34 26 37
REMARK H PARENT 16 35 16 36 26 38
REMARK Flexibility Score: inf
ROOT
ATOM      1  C   UNL     1      -4.759   3.309  -0.091  1.00  0.00     0.350 C 
ATOM      2  O   UNL     1      -5.368   2.294  -0.375  1.00  0.00    -0.245 OA
ENDROOT
BRANCH   1   3
ATOM      3  O   UNL     1      -5.432   4.450   0.166  1.00  0.00    -0.462 OA
BRANCH   3   4
ATOM      4  C   UNL     1      -6.858   4.395   0.085  1.00  0.00     0.230 C 
ATOM      5  C   UNL     1      -7.441   5.773   0.405  1.00  0.00     0.049 C 
ENDBRANCH   3   4
ENDBRANCH   1   3
BRANCH   1   6
ATOM      6  C   UNL     1      -3.346   3.292  -0.029  1.00  0.00     0.138 A 
ATOM      7  S   UNL     1      -2.236   4.643   0.323  1.00  0.00    -0.106 S 
ATOM      8  C   UNL     1      -2.489   2.226  -0.258  1.00  0.00     0.067 A 
ATOM      9  C   UNL     1      -0.698   3.791   0.156  1.00  0.00     0.126 A 
ATOM     10  C   UNL     1      -1.083   2.423  -0.025  1.00  0.00     0.039 A 
ATOM     11  N   UNL     1       0.539   4.225   0.202  1.00  0.00    -0.242 NA
ATOM     12  C   UNL     1      -0.018   1.503   0.010  1.00  0.00    -0.027 A 
ATOM     13  C   UNL     1       1.555   3.366   0.101  1.00  0.00     0.043 A 
ATOM     14  C   UNL     1       0.002  -0.004   0.002  1.00  0.00     0.021 C 
ATOM     15  C   UNL     1       1.297   2.008   0.001  1.00  0.00    -0.016 A 
ATOM     16  C   UNL     1       2.959   3.913   0.090  1.00  0.00     0.067 C 
ATOM     17  C   UNL     1       1.408  -0.309   0.541  1.00  0.00     0.010 C 
ATOM     18  C   UNL     1      -1.041  -0.545   0.993  1.00  0.00     0.013 C 
ATOM     19  C   UNL     1       2.212   0.835  -0.121  1.00  0.00    -0.002 C 
ATOM     20  C   UNL     1       2.057  -1.619   0.203  1.00  0.00     0.001 C 
ATOM     21  C   UNL     1       3.593   0.896   0.459  1.00  0.00     0.012 C 
ATOM     22  C   UNL     1       2.343   0.579  -1.627  1.00  0.00     0.017 C 
ATOM     23  C   UNL     1       3.425  -1.654   0.902  1.00  0.00     0.003 C 
ATOM     24  C   UNL     1       1.235  -2.836   0.614  1.00  0.00     0.031 C 
ATOM     25  C   UNL     1       4.282  -0.464   0.499  1.00  0.00     0.006 C 
ATOM     26  C   UNL     1       3.358  -1.855   2.398  1.00  0.00    -0.008 C 
ATOM     27  C   UNL     1       1.142  -2.923   2.106  1.00  0.00    -0.027 C 
ATOM     28  C   UNL     1       2.112  -2.540   2.880  1.00  0.00    -0.065 C 
ATOM     29  C   UNL     1       4.558  -2.708   2.847  1.00  0.00     0.014 C 
ATOM     30  C   UNL     1       3.464  -0.520   3.133  1.00  0.00     0.016 C 
ATOM     31  C   UNL     1       2.007  -2.840   4.366  1.00  0.00     0.063 C 
ATOM     32  C   UNL     1       4.512  -2.962   4.349  1.00  0.00     0.033 C 
ATOM     33  C   UNL     1       3.227  -3.679   4.758  1.00  0.00     0.118 C 
BRANCH   8  34
ATOM     34  N   UNL     1      -3.005   1.026  -0.723  1.00  0.00    -0.397 N 
ATOM     35  H   UNL     1      -4.015   0.925  -0.898  1.00  0.00     0.156 HD
ATOM     36  H   UNL     1      -2.372   0.232  -0.894  1.00  0.00     0.156 HD
ENDBRANCH   8  34
BRANCH  33  37
ATOM     37  O   UNL     1       3.158  -4.951   4.108  1.00  0.00    -0.393 OA
ATOM     38  H   UNL     1       3.939  -5.498   4.372  1.00  0.00     0.210 HD
ENDBRANCH  33  37
ENDBRANCH   1   6
TORSDOF 5
