REMARK SMILES CCOc1cc([C@H]2c3c(-c4cc(F)ccc4O)n[nH]c3C(=O)N2Cc2ccc3c(c2)OCO3)ccc1O
REMARK SMILES IDX 7 1 8 2 9 3 18 4 19 5 20 6 21 7 22 8 23 9 6 11 4 12 36 13
REMARK SMILES IDX 5 14 35 15 34 16 3 17 2 18 1 19 37 20 24 22 25 23 30 24
REMARK SMILES IDX 26 25 29 26 27 27 28 28 31 29 33 30 32 31 10 32 16 33 11 34
REMARK SMILES IDX 15 35 12 36 14 37 13 38 17 39
REMARK H PARENT 19 10 37 21 17 40
REMARK Flexibility Score: inf
ROOT
ATOM      1  C   UNL     1       5.011   3.354   0.112  1.00  0.00     0.151 C 
ATOM      2  C   UNL     1       4.902   4.804   0.499  1.00  0.00     0.038 A 
ATOM      3  C   UNL     1       4.401   6.072   0.189  1.00  0.00     0.102 A 
ATOM      4  N   UNL     1       4.798   6.896   1.139  1.00  0.00    -0.174 NA
ATOM      5  N   UNL     1       5.502   6.271   2.020  1.00  0.00    -0.272 N 
ATOM      6  C   UNL     1       5.607   4.953   1.679  1.00  0.00     0.129 A 
ATOM      7  C   UNL     1       6.163   3.649   2.059  1.00  0.00     0.273 C 
ATOM      8  O   UNL     1       6.836   3.443   3.051  1.00  0.00    -0.267 OA
ATOM      9  N   UNL     1       5.822   2.713   1.155  1.00  0.00    -0.322 N 
ATOM     10  H   UNL     1       5.921   6.702   2.857  1.00  0.00     0.190 HD
ENDROOT
BRANCH   1  11
ATOM     11  C   UNL     1       3.641   2.727   0.062  1.00  0.00    -0.017 A 
ATOM     12  C   UNL     1       1.677   1.939   1.187  1.00  0.00     0.161 A 
ATOM     13  C   UNL     1       1.125   1.574  -0.037  1.00  0.00     0.157 A 
ATOM     14  C   UNL     1       2.936   2.515   1.232  1.00  0.00     0.056 A 
ATOM     15  C   UNL     1       1.839   1.784  -1.206  1.00  0.00     0.050 A 
ATOM     16  C   UNL     1       3.093   2.365  -1.155  1.00  0.00     0.010 A 
BRANCH  12  17
ATOM     17  O   UNL     1       0.982   1.730   2.337  1.00  0.00    -0.490 OA
BRANCH  17  18
ATOM     18  C   UNL     1       1.658   2.014   3.564  1.00  0.00     0.226 C 
ATOM     19  C   UNL     1       0.768   1.610   4.742  1.00  0.00     0.049 C 
ENDBRANCH  17  18
ENDBRANCH  12  17
BRANCH  13  20
ATOM     20  O   UNL     1      -0.111   1.008  -0.086  1.00  0.00    -0.504 OA
ATOM     21  H   UNL     1      -0.706   1.657   0.366  1.00  0.00     0.293 HD
ENDBRANCH  13  20
ENDBRANCH   1  11
BRANCH   9  22
ATOM     22  C   UNL     1       6.196   1.297   1.203  1.00  0.00     0.156 C 
BRANCH  22  23
ATOM     23  C   UNL     1       7.502   1.098   0.478  1.00  0.00    -0.025 A 
ATOM     24  C   UNL     1       7.504   0.809  -0.873  1.00  0.00     0.056 A 
ATOM     25  C   UNL     1       8.696   1.198   1.169  1.00  0.00     0.009 A 
ATOM     26  C   UNL     1       8.704   0.630  -1.543  1.00  0.00     0.166 A 
ATOM     27  C   UNL     1       9.896   1.015   0.508  1.00  0.00     0.051 A 
ATOM     28  C   UNL     1       9.906   0.731  -0.848  1.00  0.00     0.165 A 
ATOM     29  O   UNL     1       8.977   0.347  -2.849  1.00  0.00    -0.454 OA
ATOM     30  O   UNL     1      10.934   0.511  -1.719  1.00  0.00    -0.454 OA
ATOM     31  C   UNL     1      10.367   0.679  -3.032  1.00  0.00     0.468 C 
ENDBRANCH  22  23
ENDBRANCH   9  22
BRANCH   3  32
ATOM     32  C   UNL     1       3.574   6.426  -0.991  1.00  0.00     0.047 A 
ATOM     33  C   UNL     1       3.029   7.708  -1.107  1.00  0.00     0.125 A 
ATOM     34  C   UNL     1       3.342   5.484  -1.990  1.00  0.00     0.053 A 
ATOM     35  C   UNL     1       2.259   8.032  -2.212  1.00  0.00     0.050 A 
ATOM     36  C   UNL     1       2.567   5.817  -3.085  1.00  0.00     0.124 A 
ATOM     37  C   UNL     1       2.029   7.089  -3.196  1.00  0.00     0.043 A 
ATOM     38  F   UNL     1       2.338   4.902  -4.052  1.00  0.00    -0.207 F 
BRANCH  33  39
ATOM     39  O   UNL     1       3.255   8.634  -0.139  1.00  0.00    -0.507 OA
ATOM     40  H   UNL     1       4.240   8.697  -0.071  1.00  0.00     0.293 HD
ENDBRANCH  33  39
ENDBRANCH   3  32
TORSDOF 8
