REMARK SMILES C[C@@H](NC(=O)[C@@H]1Cc2c([nH]c3ccccc23)[C@H]2c3ccccc3C(=O)N21)C(=O)NCCc1ccc(Cl)cc1
REMARK SMILES IDX 27 1 28 2 29 3 2 5 1 6 3 7 4 8 5 10 6 11 26 12 7 13 17 14
REMARK SMILES IDX 24 15 8 16 9 17 18 18 25 19 23 20 16 21 10 22 19 23 22 24
REMARK SMILES IDX 11 25 15 26 20 28 21 29 12 30 14 31 13 32 30 33 31 34 32 35
REMARK SMILES IDX 38 36 33 37 37 38 34 39 35 40 36 41
REMARK H PARENT 29 4 3 9 10 27
REMARK Flexibility Score: inf
ROOT
ATOM      1  C   UNL     1      -0.014   1.209   0.009  1.00  0.00     0.242 C 
ATOM      2  O   UNL     1       0.002  -0.004   0.002  1.00  0.00    -0.273 OA
ATOM      3  N   UNL     1      -1.191   1.867   0.018  1.00  0.00    -0.354 N 
ATOM      4  H   UNL     1      -1.205   2.897   0.023  1.00  0.00     0.163 HD
ENDROOT
BRANCH   1   5
ATOM      5  C   UNL     1       1.280   1.980   0.001  1.00  0.00     0.168 C 
ATOM      6  C   UNL     1       1.361   2.854   1.254  1.00  0.00     0.041 C 
BRANCH   5   7
ATOM      7  N   UNL     1       2.407   1.043  -0.015  1.00  0.00    -0.343 N 
ATOM      8  C   UNL     1       3.596   1.428  -0.518  1.00  0.00     0.243 C 
ATOM      9  H   UNL     1       2.289   0.090   0.358  1.00  0.00     0.164 HD
ATOM     10  O   UNL     1       3.735   2.550  -0.957  1.00  0.00    -0.273 OA
BRANCH   8  11
ATOM     11  C   UNL     1       4.755   0.465  -0.534  1.00  0.00     0.180 C 
ATOM     12  N   UNL     1       5.936   1.118  -1.107  1.00  0.00    -0.314 N 
ATOM     13  C   UNL     1       5.101   0.043   0.901  1.00  0.00     0.073 C 
ATOM     14  C   UNL     1       6.509   2.358  -0.531  1.00  0.00     0.164 C 
ATOM     15  C   UNL     1       6.731   0.744  -2.143  1.00  0.00     0.255 C 
ATOM     16  C   UNL     1       5.925   1.111   1.574  1.00  0.00    -0.014 A 
ATOM     17  C   UNL     1       6.559   2.136   0.961  1.00  0.00     0.047 A 
ATOM     18  C   UNL     1       7.864   2.516  -1.133  1.00  0.00    -0.007 A 
ATOM     19  O   UNL     1       6.449  -0.112  -2.958  1.00  0.00    -0.269 OA
ATOM     20  C   UNL     1       7.965   1.535  -2.140  1.00  0.00     0.045 A 
ATOM     21  C   UNL     1       6.197   1.247   2.994  1.00  0.00     0.003 A 
ATOM     22  N   UNL     1       7.221   2.902   1.882  1.00  0.00    -0.356 N 
ATOM     23  C   UNL     1       8.898   3.385  -0.866  1.00  0.00     0.007 A 
ATOM     24  C   UNL     1       9.119   1.427  -2.919  1.00  0.00     0.014 A 
ATOM     25  C   UNL     1       7.020   2.393   3.132  1.00  0.00     0.046 A 
ATOM     26  C   UNL     1       5.808   0.493   4.105  1.00  0.00     0.010 A 
ATOM     27  H   UNL     1       7.785   3.736   1.665  1.00  0.00     0.166 HD
ATOM     28  C   UNL     1      10.045   3.263  -1.645  1.00  0.00     0.000 A 
ATOM     29  C   UNL     1      10.149   2.314  -2.643  1.00  0.00     0.001 A 
ATOM     30  C   UNL     1       7.464   2.799   4.389  1.00  0.00     0.026 A 
ATOM     31  C   UNL     1       6.261   0.916   5.331  1.00  0.00     0.001 A 
ATOM     32  C   UNL     1       7.065   2.035   5.472  1.00  0.00     0.002 A 
ENDBRANCH   8  11
ENDBRANCH   5   7
ENDBRANCH   1   5
BRANCH   3  33
ATOM     33  C   UNL     1      -2.449   1.117   0.020  1.00  0.00     0.120 C 
BRANCH  33  34
ATOM     34  C   UNL     1      -3.626   2.095   0.031  1.00  0.00     0.056 C 
BRANCH  34  35
ATOM     35  C   UNL     1      -4.920   1.324   0.033  1.00  0.00    -0.046 A 
ATOM     36  C   UNL     1      -5.508   0.964   1.231  1.00  0.00     0.005 A 
ATOM     37  C   UNL     1      -5.522   0.982  -1.164  1.00  0.00     0.005 A 
ATOM     38  C   UNL     1      -6.696   0.257   1.233  1.00  0.00     0.021 A 
ATOM     39  C   UNL     1      -6.707   0.270  -1.163  1.00  0.00     0.021 A 
ATOM     40  C   UNL     1      -7.296  -0.091   0.036  1.00  0.00     0.041 A 
ATOM     41  Cl  UNL     1      -8.787  -0.980   0.038  1.00  0.00    -0.084 Cl
ENDBRANCH  34  35
ENDBRANCH  33  34
ENDBRANCH   3  33
TORSDOF 6
