REMARK SMILES Brc1cc(C[NH2+][C@H]2CCCN(Cc3ccccc3)C2)cc2c1OCO2
REMARK SMILES IDX 11 1 10 2 9 3 8 4 7 5 19 6 12 7 13 8 16 9 17 10 15 11 18 12
REMARK SMILES IDX 14 13 6 14 5 17 4 18 3 19 20 20 2 21 21 22 22 23 1 24 25 25
REMARK SMILES IDX 23 26 24 27
REMARK H PARENT 6 15 6 16
REMARK Flexibility Score: inf
ROOT
ATOM      1  N   UNL     1      -0.700   1.559   1.216  1.00  0.00    -0.293 NA
ATOM      2  C   UNL     1      -0.013   1.086   0.008  1.00  0.00     0.085 C 
ATOM      3  C   UNL     1      -0.752   1.593  -1.232  1.00  0.00     0.022 C 
ATOM      4  C   UNL     1      -0.788   3.123  -1.209  1.00  0.00     0.068 C 
ATOM      5  C   UNL     1      -1.465   3.591   0.082  1.00  0.00     0.196 C 
ATOM      6  C   UNL     1      -0.705   3.026   1.284  1.00  0.00     0.149 C 
ENDROOT
BRANCH   1   7
ATOM      7  C   UNL     1      -0.099   0.979   2.425  1.00  0.00     0.120 C 
BRANCH   7   8
ATOM      8  C   UNL     1       1.307   1.496   2.586  1.00  0.00    -0.034 A 
ATOM      9  C   UNL     1       3.887   2.446   2.881  1.00  0.00     0.000 A 
ATOM     10  C   UNL     1       3.654   1.289   2.161  1.00  0.00     0.000 A 
ATOM     11  C   UNL     1       2.829   3.128   3.453  1.00  0.00     0.000 A 
ATOM     12  C   UNL     1       2.365   0.812   2.018  1.00  0.00     0.005 A 
ATOM     13  C   UNL     1       1.539   2.653   3.306  1.00  0.00     0.005 A 
ENDBRANCH   7   8
ENDBRANCH   1   7
BRANCH   5  14
ATOM     14  N   UNL     1      -1.452   5.059   0.139  1.00  0.00    -0.339 N 
ATOM     15  H   UNL     1      -1.494   5.361   1.123  1.00  0.00     0.346 HD
ATOM     16  H   UNL     1      -0.578   5.408  -0.278  1.00  0.00     0.346 HD
BRANCH  14  17
ATOM     17  C   UNL     1      -2.595   5.624  -0.590  1.00  0.00     0.297 C 
BRANCH  17  18
ATOM     18  C   UNL     1      -2.548   7.128  -0.510  1.00  0.00     0.011 A 
ATOM     19  C   UNL     1      -1.871   7.849  -1.475  1.00  0.00     0.029 A 
ATOM     20  C   UNL     1      -3.187   7.784   0.526  1.00  0.00     0.060 A 
ATOM     21  C   UNL     1      -1.826   9.230  -1.406  1.00  0.00     0.064 A 
ATOM     22  C   UNL     1      -3.141   9.166   0.606  1.00  0.00     0.167 A 
ATOM     23  C   UNL     1      -2.459   9.893  -0.367  1.00  0.00     0.179 A 
ATOM     24  Br  UNL     1      -0.898  10.213  -2.729  1.00  0.00    -0.047 Br
ATOM     25  O   UNL     1      -3.673  10.039   1.510  1.00  0.00    -0.454 OA
ATOM     26  O   UNL     1      -2.564  11.222  -0.071  1.00  0.00    -0.452 OA
ATOM     27  C   UNL     1      -2.967  11.278   1.310  1.00  0.00     0.468 C 
ENDBRANCH  17  18
ENDBRANCH  14  17
ENDBRANCH   5  14
TORSDOF 5
