REMARK SMILES Cc1csc(C2=C(N)NC(S[C@H](C)C(=O)N3CCc4ccccc43)=C(C#N)C23CCCCC3)n1
REMARK SMILES IDX 12 1 13 2 11 3 10 4 6 5 28 6 7 7 25 8 33 9 29 10 9 11 32 12
REMARK SMILES IDX 30 13 31 15 5 16 1 17 2 18 34 19 3 20 4 21 8 22 26 25 27 26
REMARK SMILES IDX 14 27 15 28 16 29 24 30 17 31 19 32 23 33 18 34 20 35 22 36
REMARK SMILES IDX 21 37
REMARK H PARENT 9 14 8 23 8 24
REMARK Flexibility Score: inf
ROOT
ATOM      1  C   UNL     1      -3.341   2.633   1.059  1.00  0.00     0.139 C 
ATOM      2  C   UNL     1      -4.357   3.754   1.284  1.00  0.00     0.030 C 
ENDROOT
BRANCH   1   3
ATOM      3  S   UNL     1      -3.329   2.172  -0.691  1.00  0.00    -0.094 SA
BRANCH   3   4
ATOM      4  C   UNL     1      -4.891   1.366  -0.806  1.00  0.00     0.089 C 
ATOM      5  C   UNL     1      -7.173  -0.176  -1.199  1.00  0.00     0.040 C 
ATOM      6  C   UNL     1      -7.201   1.221  -1.753  1.00  0.00     0.039 C 
ATOM      7  C   UNL     1      -6.177  -0.602  -0.396  1.00  0.00     0.108 C 
ATOM      8  C   UNL     1      -5.849   1.868  -1.631  1.00  0.00     0.070 C 
ATOM      9  C   UNL     1      -8.230   2.052  -0.981  1.00  0.00     0.018 C 
ATOM     10  C   UNL     1      -7.605   1.171  -3.230  1.00  0.00     0.018 C 
ATOM     11  N   UNL     1      -5.129   0.232  -0.064  1.00  0.00    -0.336 N 
ATOM     12  C   UNL     1      -8.262   3.474  -1.544  1.00  0.00     0.001 C 
ATOM     13  C   UNL     1      -7.635   2.592  -3.796  1.00  0.00     0.001 C 
ATOM     14  H   UNL     1      -4.525   0.006   0.739  1.00  0.00     0.169 HD
ATOM     15  C   UNL     1      -8.656   3.429  -3.022  1.00  0.00     0.000 C 
BRANCH   5  16
ATOM     16  C   UNL     1      -8.256  -1.098  -1.539  1.00  0.00     0.124 A 
ATOM     17  C   UNL     1      -9.534  -4.549  -1.369  1.00  0.00     0.067 C 
ATOM     18  C   UNL     1      -9.430  -3.076  -1.671  1.00  0.00     0.049 A 
ATOM     19  N   UNL     1      -8.370  -2.400  -1.284  1.00  0.00    -0.242 NA
ATOM     20  C   UNL     1     -10.427  -2.449  -2.341  1.00  0.00     0.090 A 
ATOM     21  S   UNL     1      -9.788  -0.780  -2.405  1.00  0.00    -0.122 S 
ENDBRANCH   5  16
BRANCH   7  22
ATOM     22  N   UNL     1      -6.203  -1.892   0.097  1.00  0.00    -0.385 N 
ATOM     23  H   UNL     1      -6.978  -2.526  -0.146  1.00  0.00     0.158 HD
ATOM     24  H   UNL     1      -5.444  -2.221   0.711  1.00  0.00     0.158 HD
ENDBRANCH   7  22
BRANCH   8  25
ATOM     25  C   UNL     1      -5.563   3.041  -2.401  1.00  0.00     0.098 C 
ATOM     26  N   UNL     1      -5.337   3.971  -3.011  1.00  0.00    -0.193 NA
ENDBRANCH   8  25
ENDBRANCH   3   4
ENDBRANCH   1   3
BRANCH   1  27
ATOM     27  C   UNL     1      -1.969   3.111   1.462  1.00  0.00     0.240 C 
ATOM     28  O   UNL     1      -1.204   3.537   0.623  1.00  0.00    -0.273 OA
BRANCH  27  29
ATOM     29  N   UNL     1      -1.593   3.064   2.756  1.00  0.00    -0.311 N 
ATOM     30  C   UNL     1      -0.330   3.425   3.236  1.00  0.00     0.047 A 
ATOM     31  C   UNL     1      -2.449   2.635   3.865  1.00  0.00     0.130 C 
ATOM     32  C   UNL     1      -0.246   3.276   4.611  1.00  0.00    -0.022 A 
ATOM     33  C   UNL     1       0.785   3.888   2.535  1.00  0.00     0.026 A 
ATOM     34  C   UNL     1      -1.574   2.766   5.122  1.00  0.00     0.059 C 
ATOM     35  C   UNL     1       0.925   3.581   5.279  1.00  0.00     0.006 A 
ATOM     36  C   UNL     1       1.951   4.191   3.205  1.00  0.00     0.002 A 
ATOM     37  C   UNL     1       2.025   4.039   4.577  1.00  0.00     0.000 A 
ENDBRANCH  27  29
ENDBRANCH   1  27
TORSDOF 7
