REMARK SMILES Cc1cccc(NC(=S)NNC(=O)[C@H]2CCCN(C(=O)c3cccc4ccccc34)C2)c1C
REMARK SMILES IDX 11 1 12 2 13 3 10 5 8 7 9 8 7 9 6 11 1 12 2 13 32 14 3 15
REMARK SMILES IDX 33 16 4 17 5 18 14 19 31 20 15 21 18 22 16 23 17 24 19 25
REMARK SMILES IDX 20 26 21 27 30 28 22 29 25 30 29 31 23 32 24 33 26 34 28 35
REMARK SMILES IDX 27 36
REMARK H PARENT 11 4 10 6 7 10
REMARK Flexibility Score: inf
ROOT
ATOM      1  N   UNL     1       0.996   0.877  -2.681  1.00  0.00    -0.268 N 
ATOM      2  C   UNL     1      -0.227   0.514  -2.246  1.00  0.00     0.243 C 
ATOM      3  O   UNL     1      -0.949  -0.154  -2.955  1.00  0.00    -0.273 OA
ATOM      4  H   UNL     1       1.609   1.445  -2.079  1.00  0.00     0.191 HD
ENDROOT
BRANCH   1   5
ATOM      5  N   UNL     1       1.433   0.483  -3.952  1.00  0.00    -0.274 N 
ATOM      6  H   UNL     1       0.819  -0.085  -4.554  1.00  0.00     0.190 HD
BRANCH   5   7
ATOM      7  C   UNL     1       2.655   0.846  -4.387  1.00  0.00     0.189 C 
ATOM      8  S   UNL     1       3.189   0.363  -5.941  1.00  0.00    -0.039 S 
BRANCH   7   9
ATOM      9  N   UNL     1       3.458   1.589  -3.600  1.00  0.00    -0.331 N 
ATOM     10  H   UNL     1       3.168   1.815  -2.637  1.00  0.00     0.169 HD
BRANCH   9  11
ATOM     11  C   UNL     1       4.684   2.053  -4.089  1.00  0.00     0.043 A 
ATOM     12  C   UNL     1       6.650   5.279  -4.204  1.00  0.00     0.044 C 
ATOM     13  C   UNL     1       6.256   3.837  -4.396  1.00  0.00    -0.046 A 
ATOM     14  C   UNL     1       5.043   3.383  -3.917  1.00  0.00    -0.025 A 
ATOM     15  C   UNL     1       7.108   2.970  -5.056  1.00  0.00     0.004 A 
ATOM     16  C   UNL     1       4.112   4.330  -3.204  1.00  0.00     0.047 C 
ATOM     17  C   UNL     1       6.751   1.646  -5.234  1.00  0.00     0.002 A 
ATOM     18  C   UNL     1       5.541   1.185  -4.752  1.00  0.00     0.026 A 
ENDBRANCH   9  11
ENDBRANCH   7   9
ENDBRANCH   5   7
ENDBRANCH   1   5
BRANCH   2  19
ATOM     19  C   UNL     1      -0.697   0.939  -0.879  1.00  0.00     0.100 C 
ATOM     20  C   UNL     1       0.254   0.382   0.185  1.00  0.00     0.133 C 
ATOM     21  C   UNL     1      -2.107   0.396  -0.632  1.00  0.00     0.017 C 
ATOM     22  N   UNL     1      -0.285   0.694   1.516  1.00  0.00    -0.338 N 
ATOM     23  C   UNL     1      -2.598   0.854   0.744  1.00  0.00     0.022 C 
ATOM     24  C   UNL     1      -1.668   0.296   1.825  1.00  0.00     0.120 C 
BRANCH  22  25
ATOM     25  C   UNL     1       0.471   1.333   2.430  1.00  0.00     0.254 C 
ATOM     26  O   UNL     1       1.634   1.588   2.186  1.00  0.00    -0.269 OA
BRANCH  25  27
ATOM     27  C   UNL     1      -0.113   1.722   3.727  1.00  0.00     0.047 A 
ATOM     28  C   UNL     1      -0.054   3.069   4.164  1.00  0.00    -0.006 A 
ATOM     29  C   UNL     1      -0.731   0.775   4.531  1.00  0.00     0.014 A 
ATOM     30  C   UNL     1      -0.623   3.417   5.413  1.00  0.00    -0.018 A 
ATOM     31  C   UNL     1       0.554   4.061   3.383  1.00  0.00     0.009 A 
ATOM     32  C   UNL     1      -1.278   1.135   5.756  1.00  0.00     0.001 A 
ATOM     33  C   UNL     1      -1.234   2.424   6.197  1.00  0.00     0.009 A 
ATOM     34  C   UNL     1      -0.565   4.753   5.847  1.00  0.00     0.009 A 
ATOM     35  C   UNL     1       0.593   5.346   3.834  1.00  0.00     0.001 A 
ATOM     36  C   UNL     1       0.035   5.691   5.063  1.00  0.00     0.001 A 
ENDBRANCH  25  27
ENDBRANCH  22  25
ENDBRANCH   2  19
TORSDOF 7
