REMARK SMILES Cc1ccc(-c2n[nH]c(=S)n2CC(=O)NNC(=O)[C@H](C)Oc2ccc3ccccc3c2)cc1
REMARK SMILES IDX 13 1 14 2 15 3 12 5 11 6 6 7 7 8 9 9 8 10 10 11 5 13 1 14
REMARK SMILES IDX 2 15 33 16 3 17 32 18 4 19 16 20 17 21 18 23 19 24 20 25
REMARK SMILES IDX 21 26 22 27 31 28 23 29 30 30 24 31 25 32 29 33 26 34 28 35
REMARK SMILES IDX 27 36
REMARK H PARENT 15 4 8 12 16 22
REMARK Flexibility Score: inf
ROOT
ATOM      1  C   UNL     1      -6.895  -1.004   2.344  1.00  0.00     0.258 C 
ATOM      2  O   UNL     1      -7.048   0.002   1.684  1.00  0.00    -0.271 OA
ATOM      3  N   UNL     1      -5.771  -1.735   2.209  1.00  0.00    -0.266 N 
ATOM      4  H   UNL     1      -5.641  -2.589   2.769  1.00  0.00     0.191 HD
ENDROOT
BRANCH   1   5
ATOM      5  C   UNL     1      -7.963  -1.437   3.316  1.00  0.00     0.228 C 
BRANCH   5   6
ATOM      6  N   UNL     1      -9.074  -0.483   3.277  1.00  0.00    -0.291 N 
ATOM      7  C   UNL     1      -9.225   0.617   4.097  1.00  0.00     0.162 A 
ATOM      8  N   UNL     1     -10.328   1.230   3.769  1.00  0.00    -0.154 NA
ATOM      9  C   UNL     1     -10.128  -0.533   2.438  1.00  0.00     0.195 A 
ATOM     10  N   UNL     1     -10.925   0.518   2.720  1.00  0.00    -0.251 N 
ATOM     11  S   UNL     1     -10.406  -1.717   1.233  1.00  0.00    -0.039 S 
ATOM     12  H   UNL     1     -11.810   0.755   2.249  1.00  0.00     0.193 HD
BRANCH   7  13
ATOM     13  C   UNL     1      -8.290   1.033   5.166  1.00  0.00     0.019 A 
ATOM     14  C   UNL     1      -5.588   2.234   8.255  1.00  0.00     0.044 C 
ATOM     15  C   UNL     1      -6.540   1.811   7.166  1.00  0.00    -0.051 A 
ATOM     16  C   UNL     1      -6.099   0.985   6.148  1.00  0.00     0.004 A 
ATOM     17  C   UNL     1      -7.852   2.251   7.189  1.00  0.00     0.004 A 
ATOM     18  C   UNL     1      -6.968   0.589   5.152  1.00  0.00     0.012 A 
ATOM     19  C   UNL     1      -8.729   1.867   6.195  1.00  0.00     0.012 A 
ENDBRANCH   7  13
ENDBRANCH   5   6
ENDBRANCH   1   5
BRANCH   3  20
ATOM     20  N   UNL     1      -4.779  -1.333   1.305  1.00  0.00    -0.264 N 
ATOM     21  C   UNL     1      -3.654  -2.063   1.170  1.00  0.00     0.279 C 
ATOM     22  H   UNL     1      -4.908  -0.478   0.745  1.00  0.00     0.191 HD
ATOM     23  O   UNL     1      -3.502  -3.069   1.830  1.00  0.00    -0.269 OA
BRANCH  21  24
ATOM     24  C   UNL     1      -2.587  -1.631   0.198  1.00  0.00     0.260 C 
ATOM     25  C   UNL     1      -3.171  -1.586  -1.215  1.00  0.00     0.064 C 
BRANCH  24  26
ATOM     26  O   UNL     1      -1.503  -2.561   0.236  1.00  0.00    -0.481 OA
BRANCH  26  27
ATOM     27  C   UNL     1      -0.261  -2.072  -0.023  1.00  0.00     0.121 A 
ATOM     28  C   UNL     1       0.825  -2.889   0.109  1.00  0.00     0.055 A 
ATOM     29  C   UNL     1      -0.114  -0.740  -0.422  1.00  0.00     0.047 A 
ATOM     30  C   UNL     1       2.109  -2.385  -0.159  1.00  0.00    -0.015 A 
ATOM     31  C   UNL     1       1.115  -0.222  -0.688  1.00  0.00     0.012 A 
ATOM     32  C   UNL     1       2.256  -1.034  -0.562  1.00  0.00    -0.018 A 
ATOM     33  C   UNL     1       3.251  -3.196  -0.034  1.00  0.00     0.009 A 
ATOM     34  C   UNL     1       3.541  -0.532  -0.830  1.00  0.00     0.009 A 
ATOM     35  C   UNL     1       4.479  -2.674  -0.302  1.00  0.00     0.001 A 
ATOM     36  C   UNL     1       4.624  -1.346  -0.699  1.00  0.00     0.001 A 
ENDBRANCH  26  27
ENDBRANCH  24  26
ENDBRANCH  21  24
ENDBRANCH   3  20
TORSDOF 7
