REMARK SMILES Cc1ccc(NC(=O)c2c(C)nc3sc(C(=O)NCc4ccccc4)c(N)c3c2-c2cccnc2)c(C)c1
REMARK SMILES IDX 9 1 10 2 12 3 13 4 28 5 29 6 26 7 15 8 14 9 11 10 7 11 6 12
REMARK SMILES IDX 8 14 5 15 1 16 2 17 38 18 3 19 36 20 4 21 37 22 30 23 35 24
REMARK SMILES IDX 31 25 34 26 32 27 33 28 27 29 16 32 17 33 18 34 19 36 20 37
REMARK SMILES IDX 25 38 21 39 24 40 22 41 23 42
REMARK H PARENT 6 13 27 30 27 31 18 35
REMARK Flexibility Score: inf
ROOT
ATOM      1  C   UNL     1       3.705  -0.917   0.185  1.00  0.00     0.070 A 
ATOM      2  C   UNL     1       4.279  -1.168   1.436  1.00  0.00     0.052 A 
ATOM      3  N   UNL     1       5.424  -1.810   1.526  1.00  0.00    -0.241 NA
ATOM      4  C   UNL     1       6.075  -2.230   0.459  1.00  0.00     0.127 A 
ATOM      5  C   UNL     1       5.598  -2.031  -0.857  1.00  0.00     0.044 A 
ATOM      6  C   UNL     1       4.357  -1.342  -0.982  1.00  0.00     0.010 A 
ATOM      7  C   UNL     1       6.448  -2.561  -1.910  1.00  0.00     0.066 A 
ATOM      8  C   UNL     1       7.617  -3.197  -1.549  1.00  0.00     0.118 A 
ATOM      9  S   UNL     1       7.607  -3.100   0.230  1.00  0.00    -0.108 S 
ATOM     10  C   UNL     1       3.580  -0.705   2.688  1.00  0.00     0.067 C 
ENDROOT
BRANCH   1  11
ATOM     11  C   UNL     1       2.420  -0.202   0.093  1.00  0.00     0.258 C 
ATOM     12  N   UNL     1       2.402   1.143  -0.001  1.00  0.00    -0.322 N 
ATOM     13  H   UNL     1       3.287   1.665  -0.076  1.00  0.00     0.170 HD
ATOM     14  O   UNL     1       1.375  -0.824   0.102  1.00  0.00    -0.269 OA
BRANCH  12  15
ATOM     15  C   UNL     1       1.183   1.828   0.004  1.00  0.00     0.044 A 
ATOM     16  C   UNL     1      -2.542   3.924   0.018  1.00  0.00     0.044 C 
ATOM     17  C   UNL     1      -1.228   3.185   0.013  1.00  0.00    -0.051 A 
ATOM     18  C   UNL     1      -0.116   3.751   0.609  1.00  0.00     0.009 A 
ATOM     19  C   UNL     1      -1.137   1.944  -0.592  1.00  0.00     0.005 A 
ATOM     20  C   UNL     1       1.089   3.076   0.606  1.00  0.00    -0.027 A 
ATOM     21  C   UNL     1       0.064   1.262  -0.593  1.00  0.00     0.027 A 
ATOM     22  C   UNL     1       2.301   3.694   1.255  1.00  0.00     0.046 C 
ENDBRANCH  12  15
ENDBRANCH   1  11
BRANCH   6  23
ATOM     23  C   UNL     1       3.769  -1.082  -2.313  1.00  0.00     0.002 A 
ATOM     24  C   UNL     1       3.259  -2.129  -3.081  1.00  0.00     0.119 A 
ATOM     25  C   UNL     1       3.719   0.220  -2.827  1.00  0.00     0.012 A 
ATOM     26  N   UNL     1       2.731  -1.897  -4.265  1.00  0.00    -0.264 NA
ATOM     27  C   UNL     1       3.159   0.410  -4.078  1.00  0.00     0.021 A 
ATOM     28  C   UNL     1       2.671  -0.682  -4.774  1.00  0.00     0.111 A 
ENDBRANCH   6  23
BRANCH   7  29
ATOM     29  N   UNL     1       6.092  -2.431  -3.245  1.00  0.00    -0.397 N 
ATOM     30  H   UNL     1       5.214  -1.952  -3.489  1.00  0.00     0.156 HD
ATOM     31  H   UNL     1       6.699  -2.809  -3.986  1.00  0.00     0.156 HD
ENDBRANCH   7  29
BRANCH   8  32
ATOM     32  C   UNL     1       8.592  -3.788  -2.391  1.00  0.00     0.263 C 
ATOM     33  O   UNL     1       8.445  -3.768  -3.600  1.00  0.00    -0.268 OA
ATOM     34  N   UNL     1       9.682  -4.371  -1.854  1.00  0.00    -0.347 N 
ATOM     35  H   UNL     1       9.806  -4.387  -0.832  1.00  0.00     0.164 HD
BRANCH  34  36
ATOM     36  C   UNL     1      10.690  -4.981  -2.725  1.00  0.00     0.152 C 
BRANCH  36  37
ATOM     37  C   UNL     1      11.798  -5.558  -1.883  1.00  0.00    -0.029 A 
ATOM     38  C   UNL     1      11.721  -6.866  -1.442  1.00  0.00     0.005 A 
ATOM     39  C   UNL     1      12.893  -4.782  -1.555  1.00  0.00     0.005 A 
ATOM     40  C   UNL     1      12.738  -7.396  -0.670  1.00  0.00     0.000 A 
ATOM     41  C   UNL     1      13.908  -5.310  -0.778  1.00  0.00     0.000 A 
ATOM     42  C   UNL     1      13.831  -6.618  -0.337  1.00  0.00     0.000 A 
ENDBRANCH  36  37
ENDBRANCH  34  36
ENDBRANCH   8  32
TORSDOF 7
