REMARK SMILES COc1cc([C@H]2C3=C(C[C@H](c4ccc(O)cc4)CC3=O)Nc3c2c(C)nn3-c2ccccc2)ccc1O
REMARK SMILES IDX 25 1 24 2 23 3 22 4 27 5 26 6 21 7 8 8 7 9 6 10 19 11 20 12
REMARK SMILES IDX 18 13 10 14 9 15 28 17 33 18 29 19 32 20 30 21 31 22 5 23
REMARK SMILES IDX 4 24 34 25 3 26 35 27 36 28 2 29 1 30 37 31 11 33 17 34
REMARK SMILES IDX 12 35 16 36 13 37 14 38 15 39
REMARK H PARENT 21 16 37 32 15 40
REMARK Flexibility Score: inf
ROOT
ATOM      1  C   UNL     1      -1.208  -0.903   0.007  1.00  0.00     0.069 C 
ATOM      2  C   UNL     1       0.002  -0.004   0.002  1.00  0.00     0.066 A 
ATOM      3  C   UNL     1      -0.017   1.384   0.010  1.00  0.00     0.030 A 
ATOM      4  C   UNL     1       1.282   1.822  -0.000  1.00  0.00     0.138 A 
ATOM      5  N   UNL     1       2.081   0.735  -0.011  1.00  0.00    -0.217 N 
ATOM      6  N   UNL     1       1.254  -0.400  -0.010  1.00  0.00    -0.171 NA
ATOM      7  N   UNL     1       1.589   3.176  -0.003  1.00  0.00    -0.343 N 
ATOM      8  C   UNL     1       0.593   4.074  -0.298  1.00  0.00     0.025 C 
ATOM      9  C   UNL     1      -0.712   3.727  -0.310  1.00  0.00     0.027 C 
ATOM     10  C   UNL     1      -1.184   2.329   0.031  1.00  0.00     0.091 C 
ATOM     11  C   UNL     1      -1.704   4.667  -0.641  1.00  0.00     0.162 C 
ATOM     12  O   UNL     1      -2.871   4.324  -0.637  1.00  0.00    -0.294 OA
ATOM     13  C   UNL     1      -1.358   6.084  -1.001  1.00  0.00     0.089 C 
ATOM     14  C   UNL     1       0.048   6.113  -1.611  1.00  0.00     0.033 C 
ATOM     15  C   UNL     1       1.020   5.490  -0.608  1.00  0.00     0.063 C 
ATOM     16  H   UNL     1       2.543   3.500   0.211  1.00  0.00     0.168 HD
ENDROOT
BRANCH   5  17
ATOM     17  C   UNL     1       3.482   0.738  -0.020  1.00  0.00     0.067 A 
ATOM     18  C   UNL     1       4.184  -0.248   0.660  1.00  0.00     0.028 A 
ATOM     19  C   UNL     1       4.171   1.723  -0.715  1.00  0.00     0.028 A 
ATOM     20  C   UNL     1       5.566  -0.242   0.649  1.00  0.00     0.002 A 
ATOM     21  C   UNL     1       5.552   1.727  -0.717  1.00  0.00     0.002 A 
ATOM     22  C   UNL     1       6.249   0.744  -0.039  1.00  0.00     0.000 A 
ENDBRANCH   5  17
BRANCH  10  23
ATOM     23  C   UNL     1      -1.804   2.329   1.405  1.00  0.00    -0.032 A 
ATOM     24  C   UNL     1      -3.127   1.962   1.564  1.00  0.00     0.055 A 
ATOM     25  C   UNL     1      -1.050   2.702   2.502  1.00  0.00     0.009 A 
ATOM     26  C   UNL     1      -3.698   1.956   2.827  1.00  0.00     0.160 A 
ATOM     27  C   UNL     1      -1.615   2.704   3.764  1.00  0.00     0.050 A 
ATOM     28  C   UNL     1      -2.939   2.332   3.931  1.00  0.00     0.157 A 
BRANCH  26  29
ATOM     29  O   UNL     1      -4.998   1.590   2.986  1.00  0.00    -0.493 OA
ATOM     30  C   UNL     1      -5.715   1.217   1.808  1.00  0.00     0.278 C 
ENDBRANCH  26  29
BRANCH  28  31
ATOM     31  O   UNL     1      -3.496   2.333   5.172  1.00  0.00    -0.504 OA
ATOM     32  H   UNL     1      -3.365   3.255   5.509  1.00  0.00     0.293 HD
ENDBRANCH  28  31
ENDBRANCH  10  23
BRANCH  14  33
ATOM     33  C   UNL     1       0.450   7.537  -1.894  1.00  0.00    -0.044 A 
ATOM     34  C   UNL     1       0.749   7.927  -3.186  1.00  0.00     0.008 A 
ATOM     35  C   UNL     1       0.514   8.454  -0.861  1.00  0.00     0.008 A 
ATOM     36  C   UNL     1       1.118   9.232  -3.448  1.00  0.00     0.046 A 
ATOM     37  C   UNL     1       0.888   9.759  -1.116  1.00  0.00     0.046 A 
ATOM     38  C   UNL     1       1.189  10.152  -2.412  1.00  0.00     0.115 A 
BRANCH  38  39
ATOM     39  O   UNL     1       1.552  11.437  -2.666  1.00  0.00    -0.508 OA
ATOM     40  H   UNL     1       2.333  11.601  -2.080  1.00  0.00     0.293 HD
ENDBRANCH  38  39
ENDBRANCH  14  33
TORSDOF 6
