REMARK SMILES CCn1c(COc2ccc(C(C)C)cc2)nnc1SCC(=O)Nc1sc2c(c1C(N)=O)CC[C@H](C)C2
REMARK SMILES IDX 3 1 4 2 16 3 17 4 18 5 2 6 1 7 19 8 20 9 21 10 22 11 23 12
REMARK SMILES IDX 24 14 25 15 28 16 26 17 27 18 36 19 32 20 34 21 33 22 35 23
REMARK SMILES IDX 29 24 31 25 30 26 5 29 6 30 7 31 15 32 8 33 14 34 9 35 10 36
REMARK SMILES IDX 11 37 12 38 13 39
REMARK H PARENT 23 13 30 27 30 28
REMARK Flexibility Score: inf
ROOT
ATOM      1  N   UNL     1      -1.754   0.943  -1.872  1.00  0.00    -0.303 N 
ATOM      2  C   UNL     1      -0.742   1.585  -1.213  1.00  0.00     0.171 A 
ATOM      3  N   UNL     1      -0.520   2.706  -1.840  1.00  0.00    -0.131 NA
ATOM      4  N   UNL     1      -1.321   2.817  -2.839  1.00  0.00    -0.123 NA
ATOM      5  C   UNL     1      -2.102   1.765  -2.905  1.00  0.00     0.191 A 
ENDROOT
BRANCH   1   6
ATOM      6  C   UNL     1      -2.343  -0.356  -1.536  1.00  0.00     0.123 C 
ATOM      7  C   UNL     1      -3.515  -0.151  -0.575  1.00  0.00     0.028 C 
ENDBRANCH   1   6
BRANCH   5   8
ATOM      8  S   UNL     1      -3.359   1.466  -4.103  1.00  0.00    -0.076 SA
BRANCH   8   9
ATOM      9  C   UNL     1      -3.204   2.967  -5.102  1.00  0.00     0.178 C 
BRANCH   9  10
ATOM     10  C   UNL     1      -4.212   2.931  -6.222  1.00  0.00     0.235 C 
ATOM     11  O   UNL     1      -4.961   1.984  -6.334  1.00  0.00    -0.274 OA
ATOM     12  N   UNL     1      -4.280   3.952  -7.100  1.00  0.00    -0.316 N 
ATOM     13  H   UNL     1      -3.644   4.756  -7.005  1.00  0.00     0.170 HD
BRANCH  12  14
ATOM     14  C   UNL     1      -5.207   3.919  -8.130  1.00  0.00     0.108 A 
ATOM     15  S   UNL     1      -6.372   2.688  -8.492  1.00  0.00    -0.122 S 
ATOM     16  C   UNL     1      -5.432   4.867  -9.119  1.00  0.00     0.077 A 
ATOM     17  C   UNL     1      -7.124   3.416  -9.919  1.00  0.00     0.011 A 
ATOM     18  C   UNL     1      -6.473   4.587 -10.094  1.00  0.00    -0.019 A 
ATOM     19  C   UNL     1      -8.236   2.868 -10.759  1.00  0.00     0.050 C 
ATOM     20  C   UNL     1      -6.835   5.524 -11.239  1.00  0.00     0.038 C 
ATOM     21  C   UNL     1      -8.282   3.657 -12.076  1.00  0.00    -0.009 C 
ATOM     22  C   UNL     1      -8.227   5.154 -11.756  1.00  0.00     0.008 C 
ATOM     23  C   UNL     1      -9.581   3.340 -12.819  1.00  0.00     0.008 C 
BRANCH  16  24
ATOM     24  C   UNL     1      -4.646   6.103  -9.180  1.00  0.00     0.251 C 
ATOM     25  O   UNL     1      -3.614   6.136  -9.825  1.00  0.00    -0.269 OA
ATOM     26  N   UNL     1      -5.065   7.201  -8.521  1.00  0.00    -0.365 N 
ATOM     27  H   UNL     1      -5.938   7.173  -7.975  1.00  0.00     0.159 HD
ATOM     28  H   UNL     1      -4.512   8.069  -8.564  1.00  0.00     0.159 HD
ENDBRANCH  16  24
ENDBRANCH  12  14
ENDBRANCH   9  10
ENDBRANCH   8   9
ENDBRANCH   5   8
BRANCH   2  29
ATOM     29  C   UNL     1      -0.013   1.086   0.008  1.00  0.00     0.307 C 
BRANCH  29  30
ATOM     30  O   UNL     1      -0.682   1.547   1.184  1.00  0.00    -0.486 OA
BRANCH  30  31
ATOM     31  C   UNL     1      -0.149   1.182   2.380  1.00  0.00     0.120 A 
ATOM     32  C   UNL     1      -0.747   1.595   3.561  1.00  0.00     0.047 A 
ATOM     33  C   UNL     1       0.991   0.392   2.421  1.00  0.00     0.047 A 
ATOM     34  C   UNL     1      -0.203   1.223   4.776  1.00  0.00     0.008 A 
ATOM     35  C   UNL     1       1.534   0.028   3.638  1.00  0.00     0.008 A 
ATOM     36  C   UNL     1       0.936   0.440   4.814  1.00  0.00    -0.045 A 
BRANCH  36  37
ATOM     37  C   UNL     1       1.527   0.036   6.140  1.00  0.00     0.013 C 
ATOM     38  C   UNL     1       1.542  -1.490   6.247  1.00  0.00     0.012 C 
ATOM     39  C   UNL     1       2.957   0.569   6.245  1.00  0.00     0.012 C 
ENDBRANCH  36  37
ENDBRANCH  30  31
ENDBRANCH  29  30
ENDBRANCH   2  29
TORSDOF 10
