REMARK SMILES CN1C(=O)/C(=C/c2ccc(O)c(O)c2)S/C1=N\c1ccc(O)cc1C(=O)[O-]
REMARK SMILES IDX 1 1 2 2 3 3 4 4 5 5 6 6 15 7 16 8 17 9 18 10 24 11 19 12
REMARK SMILES IDX 23 13 20 14 21 15 25 16 26 17 27 18 22 19 7 21 14 22 8 23
REMARK SMILES IDX 12 24 9 25 10 26 13 27 11 29
REMARK H PARENT 22 20 13 28 11 30
REMARK Flexibility Score: inf
ROOT
ATOM      1  C   UNL     1      -2.232   0.611  -0.502  1.00  0.00     0.156 C 
ATOM      2  N   UNL     1      -2.687   1.166   0.775  1.00  0.00    -0.290 N 
ATOM      3  C   UNL     1      -3.013   0.351   1.764  1.00  0.00     0.266 C 
ATOM      4  O   UNL     1      -2.945  -0.858   1.641  1.00  0.00    -0.268 OA
ATOM      5  C   UNL     1      -3.464   0.975   3.023  1.00  0.00     0.081 C 
ATOM      6  C   UNL     1      -3.854   0.388   4.184  1.00  0.00     0.029 C 
ATOM      7  S   UNL     1      -3.358   2.710   2.610  1.00  0.00    -0.046 SA
ATOM      8  C   UNL     1      -2.766   2.531   0.934  1.00  0.00     0.176 C 
ATOM      9  N   UNL     1      -2.477   3.475   0.063  1.00  0.00    -0.224 NA
ENDROOT
BRANCH   9  10
ATOM     10  C   UNL     1      -2.583   4.786   0.419  1.00  0.00     0.075 A 
ATOM     11  C   UNL     1      -3.264   5.696  -0.417  1.00  0.00     0.027 A 
ATOM     12  C   UNL     1      -2.011   5.239   1.612  1.00  0.00     0.033 A 
ATOM     13  C   UNL     1      -3.368   7.037  -0.035  1.00  0.00     0.058 A 
ATOM     14  C   UNL     1      -2.120   6.564   1.968  1.00  0.00     0.048 A 
ATOM     15  C   UNL     1      -2.796   7.463   1.148  1.00  0.00     0.116 A 
BRANCH  11  16
ATOM     16  C   UNL     1      -3.866   5.236  -1.677  1.00  0.00     0.074 C 
ATOM     17  O   UNL     1      -3.776   4.068  -2.003  1.00  0.00    -0.545 OA
ATOM     18  O   UNL     1      -4.516   6.109  -2.472  1.00  0.00    -0.545 OA
ENDBRANCH  11  16
BRANCH  15  19
ATOM     19  O   UNL     1      -2.895   8.769   1.514  1.00  0.00    -0.508 OA
ATOM     20  H   UNL     1      -1.961   9.072   1.638  1.00  0.00     0.293 HD
ENDBRANCH  15  19
ENDBRANCH   9  10
BRANCH   6  21
ATOM     21  C   UNL     1      -4.510   1.187   5.226  1.00  0.00    -0.020 A 
ATOM     22  C   UNL     1      -4.734   0.638   6.495  1.00  0.00     0.058 A 
ATOM     23  C   UNL     1      -4.918   2.498   4.953  1.00  0.00     0.012 A 
ATOM     24  C   UNL     1      -5.347   1.397   7.473  1.00  0.00     0.157 A 
ATOM     25  C   UNL     1      -5.533   3.246   5.934  1.00  0.00     0.051 A 
ATOM     26  C   UNL     1      -5.750   2.702   7.193  1.00  0.00     0.157 A 
BRANCH  24  27
ATOM     27  O   UNL     1      -5.562   0.869   8.707  1.00  0.00    -0.504 OA
ATOM     28  H   UNL     1      -6.537   0.955   8.855  1.00  0.00     0.293 HD
ENDBRANCH  24  27
BRANCH  26  29
ATOM     29  O   UNL     1      -6.357   3.444   8.155  1.00  0.00    -0.504 OA
ATOM     30  H   UNL     1      -7.221   3.719   7.759  1.00  0.00     0.293 HD
ENDBRANCH  26  29
ENDBRANCH   6  21
TORSDOF 6
