REMARK SMILES CC(=O)NCc1ccc(-c2nc(NC(=O)Cc3c(C)[nH]c4ccc(F)cc34)sc2C)s1
REMARK SMILES IDX 12 1 11 2 10 3 29 4 28 5 30 6 13 7 14 8 15 9 16 11 17 12
REMARK SMILES IDX 19 13 18 14 20 15 21 16 27 18 22 19 26 20 23 21 24 22 25 23
REMARK SMILES IDX 9 24 31 25 8 26 6 27 7 28 5 29 4 30 2 31 3 33 1 34
REMARK H PARENT 13 10 20 17 4 32
REMARK Flexibility Score: inf
ROOT
ATOM      1  C   UNL     1       7.492   3.513   0.722  1.00  0.00     0.190 A 
ATOM      2  N   UNL     1       6.318   3.090   0.293  1.00  0.00    -0.219 NA
ATOM      3  C   UNL     1       5.199   3.377   0.954  1.00  0.00     0.096 A 
ATOM      4  C   UNL     1       5.273   4.116   2.104  1.00  0.00     0.032 A 
ATOM      5  S   UNL     1       7.035   4.398   2.206  1.00  0.00    -0.101 S 
ATOM      6  C   UNL     1       4.172   4.567   3.029  1.00  0.00     0.059 C 
ENDROOT
BRANCH   1   7
ATOM      7  N   UNL     1       8.752   3.317   0.169  1.00  0.00    -0.302 N 
ATOM      8  C   UNL     1       9.840   3.835   0.772  1.00  0.00     0.230 C 
ATOM      9  O   UNL     1       9.721   4.471   1.798  1.00  0.00    -0.274 OA
ATOM     10  H   UNL     1       8.854   2.777  -0.702  1.00  0.00     0.172 HD
BRANCH   8  11
ATOM     11  C   UNL     1      11.207   3.623   0.173  1.00  0.00     0.138 C 
BRANCH  11  12
ATOM     12  C   UNL     1      12.243   4.297   1.033  1.00  0.00    -0.010 A 
ATOM     13  C   UNL     1      12.214   6.543  -0.130  1.00  0.00     0.064 C 
ATOM     14  C   UNL     1      12.685   5.559   0.910  1.00  0.00     0.016 A 
ATOM     15  N   UNL     1      13.625   5.820   1.870  1.00  0.00    -0.358 N 
ATOM     16  C   UNL     1      13.821   4.700   2.649  1.00  0.00     0.046 A 
ATOM     17  H   UNL     1      14.112   6.719   1.992  1.00  0.00     0.166 HD
ATOM     18  C   UNL     1      12.965   3.698   2.159  1.00  0.00     0.006 A 
ATOM     19  C   UNL     1      14.647   4.424   3.734  1.00  0.00     0.030 A 
ATOM     20  C   UNL     1      12.948   2.439   2.762  1.00  0.00     0.049 A 
ATOM     21  C   UNL     1      14.620   3.178   4.319  1.00  0.00     0.041 A 
ATOM     22  C   UNL     1      13.774   2.186   3.836  1.00  0.00     0.123 A 
ATOM     23  F   UNL     1      13.761   0.969   4.422  1.00  0.00    -0.207 F 
ENDBRANCH  11  12
ENDBRANCH   8  11
ENDBRANCH   1   7
BRANCH   3  24
ATOM     24  C   UNL     1       3.892   2.899   0.455  1.00  0.00     0.054 A 
ATOM     25  S   UNL     1       2.459   2.371   1.380  1.00  0.00    -0.137 S 
ATOM     26  C   UNL     1       3.463   2.752  -0.837  1.00  0.00     0.022 A 
ATOM     27  C   UNL     1       1.396   1.982  -0.001  1.00  0.00     0.024 A 
ATOM     28  C   UNL     1       2.186   2.283  -1.062  1.00  0.00     0.018 A 
BRANCH  27  29
ATOM     29  C   UNL     1      -0.018   1.461   0.010  1.00  0.00     0.162 C 
BRANCH  29  30
ATOM     30  N   UNL     1       0.002  -0.004   0.002  1.00  0.00    -0.351 N 
ATOM     31  C   UNL     1      -1.156  -0.694   0.009  1.00  0.00     0.217 C 
ATOM     32  H   UNL     1       0.901  -0.507  -0.009  1.00  0.00     0.163 HD
ATOM     33  O   UNL     1      -2.214  -0.102   0.023  1.00  0.00    -0.275 OA
ATOM     34  C   UNL     1      -1.135  -2.201   0.001  1.00  0.00     0.114 C 
ENDBRANCH  29  30
ENDBRANCH  27  29
ENDBRANCH   3  24
TORSDOF 6
