REMARK SMILES CC[C@H](C)c1ccc(-n2c(S[C@H](C(N)=O)c3ccc(F)cc3)nc3ccccc3c2=O)cc1
REMARK SMILES IDX 9 1 30 2 31 3 29 4 28 5 27 6 26 7 25 8 24 9 23 10 10 11 8 12
REMARK SMILES IDX 5 13 33 14 6 15 32 16 7 17 3 18 4 19 2 20 1 21 11 22 12 23
REMARK SMILES IDX 16 24 22 25 17 26 21 27 18 28 19 29 20 30 13 31 15 32 14 33
REMARK H PARENT 14 34 14 35
REMARK Flexibility Score: inf
ROOT
ATOM      1  N   UNL     1      -2.658   1.264  -3.936  1.00  0.00    -0.255 N 
ATOM      2  C   UNL     1      -2.909   2.260  -4.817  1.00  0.00     0.266 A 
ATOM      3  O   UNL     1      -3.156   2.022  -5.985  1.00  0.00    -0.268 OA
ATOM      4  C   UNL     1      -2.867   3.639  -4.313  1.00  0.00     0.066 A 
ATOM      5  C   UNL     1      -3.105   4.734  -5.143  1.00  0.00     0.016 A 
ATOM      6  C   UNL     1      -3.053   5.997  -4.623  1.00  0.00     0.001 A 
ATOM      7  C   UNL     1      -2.767   6.201  -3.279  1.00  0.00     0.002 A 
ATOM      8  C   UNL     1      -2.529   5.146  -2.443  1.00  0.00     0.029 A 
ATOM      9  C   UNL     1      -2.575   3.842  -2.945  1.00  0.00     0.079 A 
ATOM     10  N   UNL     1      -2.346   2.768  -2.153  1.00  0.00    -0.223 NA
ATOM     11  C   UNL     1      -2.389   1.547  -2.626  1.00  0.00     0.177 A 
ENDROOT
BRANCH   1  12
ATOM     12  C   UNL     1      -2.681  -0.069  -4.369  1.00  0.00     0.051 A 
ATOM     13  C   UNL     1      -2.726  -2.700  -5.223  1.00  0.00    -0.045 A 
ATOM     14  C   UNL     1      -3.671  -2.252  -4.318  1.00  0.00     0.006 A 
ATOM     15  C   UNL     1      -1.759  -1.836  -5.701  1.00  0.00     0.006 A 
ATOM     16  C   UNL     1      -3.648  -0.940  -3.885  1.00  0.00     0.027 A 
ATOM     17  C   UNL     1      -1.734  -0.521  -5.277  1.00  0.00     0.027 A 
BRANCH  13  18
ATOM     18  C   UNL     1      -2.751  -4.133  -5.687  1.00  0.00     0.016 C 
ATOM     19  C   UNL     1      -2.582  -5.063  -4.484  1.00  0.00     0.013 C 
BRANCH  18  20
ATOM     20  C   UNL     1      -4.087  -4.424  -6.373  1.00  0.00     0.004 C 
ATOM     21  C   UNL     1      -4.064  -5.839  -6.954  1.00  0.00     0.004 C 
ENDBRANCH  18  20
ENDBRANCH  13  18
ENDBRANCH   1  12
BRANCH  11  22
ATOM     22  S   UNL     1      -2.077   0.208  -1.523  1.00  0.00    -0.069 SA
BRANCH  22  23
ATOM     23  C   UNL     1      -1.784   1.125   0.010  1.00  0.00     0.173 C 
BRANCH  23  24
ATOM     24  C   UNL     1      -1.611   0.155   1.150  1.00  0.00    -0.025 A 
ATOM     25  C   UNL     1      -2.499   0.167   2.209  1.00  0.00     0.008 A 
ATOM     26  C   UNL     1      -0.566  -0.750   1.133  1.00  0.00     0.008 A 
ATOM     27  C   UNL     1      -2.341  -0.722   3.255  1.00  0.00     0.039 A 
ATOM     28  C   UNL     1      -0.403  -1.637   2.180  1.00  0.00     0.039 A 
ATOM     29  C   UNL     1      -1.292  -1.626   3.242  1.00  0.00     0.123 A 
ATOM     30  F   UNL     1      -1.136  -2.495   4.264  1.00  0.00    -0.207 F 
ENDBRANCH  23  24
BRANCH  23  31
ATOM     31  C   UNL     1      -0.538   1.960  -0.134  1.00  0.00     0.235 C 
ATOM     32  O   UNL     1      -0.464   3.038   0.415  1.00  0.00    -0.274 OA
ATOM     33  N   UNL     1       0.494   1.507  -0.873  1.00  0.00    -0.368 N 
ATOM     34  H   UNL     1       0.431   0.591  -1.339  1.00  0.00     0.159 HD
ATOM     35  H   UNL     1       1.346   2.078  -0.972  1.00  0.00     0.159 HD
ENDBRANCH  23  31
ENDBRANCH  22  23
ENDBRANCH  11  22
TORSDOF 7
