REMARK SMILES C#C[C@]1(O)CC[C@@H]2[C@@H]3CCC4=C/C(=N/OCC(=O)NCCc5ccc(O)c(O)c5)CC[C@]4(C)[C@H]3CC[C@@]21C
REMARK SMILES IDX 17 1 18 2 19 3 16 5 15 6 14 7 33 8 32 9 11 10 34 11 31 12
REMARK SMILES IDX 12 13 10 14 8 15 35 16 30 17 13 18 9 19 7 20 36 21 37 22
REMARK SMILES IDX 6 23 3 24 38 25 5 26 2 27 1 28 4 29 20 31 21 32 22 33 29 34
REMARK SMILES IDX 23 35 27 36 24 37 25 38 28 39 26 41
REMARK H PARENT 19 4 4 30 28 40 26 42
REMARK Flexibility Score: inf
ROOT
ATOM      1  C   UNL     1       4.884   4.835   6.520  1.00  0.00     0.260 C 
ATOM      2  O   UNL     1       5.558   4.244   5.704  1.00  0.00    -0.271 OA
ATOM      3  N   UNL     1       5.457   5.741   7.337  1.00  0.00    -0.353 N 
ATOM      4  H   UNL     1       4.884   6.244   8.030  1.00  0.00     0.163 HD
ENDROOT
BRANCH   1   5
ATOM      5  C   UNL     1       3.407   4.557   6.621  1.00  0.00     0.363 C 
BRANCH   5   6
ATOM      6  O   UNL     1       3.042   3.566   5.657  1.00  0.00    -0.385 OA
BRANCH   6   7
ATOM      7  N   UNL     1       1.666   3.231   5.669  1.00  0.00    -0.091 NA
ATOM      8  C   UNL     1       0.211  -0.409   2.396  1.00  0.00     0.016 C 
ATOM      9  C   UNL     1       0.049   1.109   2.497  1.00  0.00    -0.008 C 
ATOM     10  C   UNL     1      -0.734   1.394   3.741  1.00  0.00    -0.062 C 
ATOM     11  C   UNL     1      -0.735   1.583   1.265  1.00  0.00     0.002 C 
ATOM     12  C   UNL     1       1.433   1.731   2.478  1.00  0.00     0.018 C 
ATOM     13  C   UNL     1      -0.215   1.966   4.821  1.00  0.00     0.027 C 
ATOM     14  C   UNL     1      -2.196   0.986   3.788  1.00  0.00     0.032 C 
ATOM     15  C   UNL     1      -2.135   0.966   1.285  1.00  0.00    -0.003 C 
ATOM     16  C   UNL     1      -0.013   1.086   0.008  1.00  0.00     0.005 C 
ATOM     17  C   UNL     1       2.110   1.642   3.846  1.00  0.00     0.061 C 
ATOM     18  C   UNL     1       1.208   2.344   4.843  1.00  0.00     0.080 C 
ATOM     19  C   UNL     1      -2.881   1.468   2.527  1.00  0.00     0.008 C 
ATOM     20  C   UNL     1      -2.918   1.315   0.042  1.00  0.00     0.002 C 
ATOM     21  C   UNL     1      -0.756   1.594  -1.224  1.00  0.00     0.011 C 
ATOM     22  C   UNL     1      -2.173   1.016  -1.270  1.00  0.00     0.011 C 
ATOM     23  C   UNL     1      -3.238   2.830  -0.078  1.00  0.00     0.008 C 
ATOM     24  C   UNL     1      -2.955   1.839  -2.327  1.00  0.00     0.130 C 
ATOM     25  C   UNL     1      -2.167  -0.479  -1.595  1.00  0.00     0.016 C 
ATOM     26  C   UNL     1      -3.611   3.007  -1.568  1.00  0.00     0.050 C 
BRANCH  24  27
ATOM     27  C   UNL     1      -2.032   2.355  -3.350  1.00  0.00    -0.071 C 
ATOM     28  C   UNL     1      -1.295   2.768  -4.167  1.00  0.00     0.007 C 
ENDBRANCH  24  27
BRANCH  24  29
ATOM     29  O   UNL     1      -3.958   1.025  -2.939  1.00  0.00    -0.377 OA
ATOM     30  H   UNL     1      -4.584   0.701  -2.243  1.00  0.00     0.212 HD
ENDBRANCH  24  29
ENDBRANCH   6   7
ENDBRANCH   5   6
ENDBRANCH   1   5
BRANCH   3  31
ATOM     31  C   UNL     1       6.893   6.012   7.239  1.00  0.00     0.120 C 
BRANCH  31  32
ATOM     32  C   UNL     1       7.284   7.072   8.271  1.00  0.00     0.057 C 
BRANCH  32  33
ATOM     33  C   UNL     1       8.761   7.351   8.170  1.00  0.00    -0.042 A 
ATOM     34  C   UNL     1       9.654   6.620   8.931  1.00  0.00     0.054 A 
ATOM     35  C   UNL     1       9.220   8.340   7.320  1.00  0.00     0.008 A 
ATOM     36  C   UNL     1      11.014   6.872   8.836  1.00  0.00     0.157 A 
ATOM     37  C   UNL     1      10.575   8.599   7.224  1.00  0.00     0.050 A 
ATOM     38  C   UNL     1      11.476   7.867   7.980  1.00  0.00     0.157 A 
BRANCH  36  39
ATOM     39  O   UNL     1      11.894   6.151   9.581  1.00  0.00    -0.504 OA
ATOM     40  H   UNL     1      12.401   6.825  10.099  1.00  0.00     0.293 HD
ENDBRANCH  36  39
BRANCH  38  41
ATOM     41  O   UNL     1      12.809   8.121   7.887  1.00  0.00    -0.504 OA
ATOM     42  H   UNL     1      12.900   9.083   8.102  1.00  0.00     0.293 HD
ENDBRANCH  38  41
ENDBRANCH  32  33
ENDBRANCH  31  32
ENDBRANCH   3  31
TORSDOF 10
