REMARK SMILES O=C(NNC(=S)NCc1ccc2c(c1)OCO2)[C@@H]1C[C@H]2CCC[C@@H](C1)C21SCCS1
REMARK SMILES IDX 5 1 6 2 7 3 8 5 9 6 10 7 11 8 14 9 12 10 13 11 17 12 15 13
REMARK SMILES IDX 16 14 4 15 3 17 2 18 1 20 18 21 25 22 19 23 24 24 20 25
REMARK SMILES IDX 23 26 26 27 21 28 22 29 30 30 27 31 29 32 28 33
REMARK H PARENT 7 4 4 16 3 19
REMARK Flexibility Score: inf
ROOT
ATOM      1  C   UNL     1       2.369   1.025  -0.015  1.00  0.00     0.185 C 
ATOM      2  S   UNL     1       3.840   1.901  -0.024  1.00  0.00    -0.039 S 
ENDROOT
BRANCH   1   3
ATOM      3  N   UNL     1       2.387  -0.323  -0.022  1.00  0.00    -0.357 N 
ATOM      4  H   UNL     1       1.502  -0.850  -0.017  1.00  0.00     0.163 HD
BRANCH   3   5
ATOM      5  C   UNL     1       3.666  -1.038  -0.038  1.00  0.00     0.151 C 
BRANCH   5   6
ATOM      6  C   UNL     1       3.410  -2.523  -0.044  1.00  0.00    -0.025 A 
ATOM      7  C   UNL     1       3.311  -3.210   1.151  1.00  0.00     0.009 A 
ATOM      8  C   UNL     1       3.071  -4.572   1.151  1.00  0.00     0.051 A 
ATOM      9  C   UNL     1       3.282  -3.197  -1.245  1.00  0.00     0.056 A 
ATOM     10  C   UNL     1       2.942  -5.253  -0.048  1.00  0.00     0.165 A 
ATOM     11  C   UNL     1       3.047  -4.562  -1.252  1.00  0.00     0.166 A 
ATOM     12  O   UNL     1       2.712  -6.571  -0.320  1.00  0.00    -0.454 OA
ATOM     13  O   UNL     1       2.884  -5.446  -2.279  1.00  0.00    -0.454 OA
ATOM     14  C   UNL     1       3.085  -6.749  -1.699  1.00  0.00     0.468 C 
ENDBRANCH   5   6
ENDBRANCH   3   5
ENDBRANCH   1   3
BRANCH   1  15
ATOM     15  N   UNL     1       1.193   1.683  -0.000  1.00  0.00    -0.274 N 
ATOM     16  H   UNL     1       1.179   2.713   0.005  1.00  0.00     0.190 HD
BRANCH  15  17
ATOM     17  N   UNL     1      -0.011   0.966   0.007  1.00  0.00    -0.268 N 
ATOM     18  C   UNL     1      -1.187   1.624   0.017  1.00  0.00     0.241 C 
ATOM     19  H   UNL     1       0.003  -0.064   0.006  1.00  0.00     0.191 HD
ATOM     20  O   UNL     1      -1.204   2.837   0.023  1.00  0.00    -0.273 OA
BRANCH  18  21
ATOM     21  C   UNL     1      -2.493   0.846   0.018  1.00  0.00     0.081 C 
ATOM     22  C   UNL     1      -3.640   1.846   0.029  1.00  0.00     0.019 C 
ATOM     23  C   UNL     1      -2.503  -0.067  -1.198  1.00  0.00     0.019 C 
ATOM     24  C   UNL     1      -4.988   1.202  -0.277  1.00  0.00     0.016 C 
ATOM     25  C   UNL     1      -3.877  -0.666  -1.479  1.00  0.00     0.016 C 
ATOM     26  C   UNL     1      -5.421   0.265   0.845  1.00  0.00     0.006 C 
ATOM     27  C   UNL     1      -4.912   0.438  -1.585  1.00  0.00     0.067 C 
ATOM     28  C   UNL     1      -4.283  -1.652  -0.389  1.00  0.00     0.006 C 
ATOM     29  C   UNL     1      -4.559  -0.981   0.946  1.00  0.00     0.001 C 
ATOM     30  S   UNL     1      -6.545  -0.237  -2.045  1.00  0.00    -0.143 SA
ATOM     31  S   UNL     1      -4.529   1.562  -2.977  1.00  0.00    -0.143 SA
ATOM     32  C   UNL     1      -6.959   0.589  -3.625  1.00  0.00     0.082 C 
ATOM     33  C   UNL     1      -5.614   0.927  -4.317  1.00  0.00     0.082 C 
ENDBRANCH  18  21
ENDBRANCH  15  17
ENDBRANCH   1  15
TORSDOF 6
