REMARK SMILES CCOC(=O)C1=C(CSc2nn(-c3ccccc3)c(=S)s2)NC(=O)N[C@@H]1c1cc(C)ccc1C
REMARK SMILES IDX 6 1 7 2 22 3 23 4 24 5 25 6 26 7 4 10 5 11 3 12 2 13 1 14
REMARK SMILES IDX 27 15 33 16 28 17 32 18 34 19 29 20 31 21 30 22 8 23 9 24
REMARK SMILES IDX 10 25 21 26 11 27 19 28 12 29 20 30 13 31 18 32 14 33 17 34
REMARK SMILES IDX 15 35 16 36
REMARK H PARENT 22 8 25 9
REMARK Flexibility Score: inf
ROOT
ATOM      1  C   UNL     1      -1.192   3.428   0.071  1.00  0.00     0.084 C 
ATOM      2  C   UNL     1       0.050   3.944  -0.049  1.00  0.00     0.043 C 
ATOM      3  N   UNL     1       1.149   3.134  -0.088  1.00  0.00    -0.310 N 
ATOM      4  C   UNL     1       1.090   1.799  -0.012  1.00  0.00     0.319 C 
ATOM      5  O   UNL     1       2.125   1.162  -0.054  1.00  0.00    -0.248 OA
ATOM      6  N   UNL     1      -0.078   1.138   0.111  1.00  0.00    -0.327 N 
ATOM      7  C   UNL     1      -1.324   1.921   0.155  1.00  0.00     0.154 C 
ATOM      8  H   UNL     1       2.075   3.576  -0.180  1.00  0.00     0.171 HD
ATOM      9  H   UNL     1      -0.098   0.110   0.172  1.00  0.00     0.166 HD
ENDROOT
BRANCH   1  10
ATOM     10  C   UNL     1      -2.331   4.266   0.111  1.00  0.00     0.338 C 
ATOM     11  O   UNL     1      -2.895   4.476   1.169  1.00  0.00    -0.246 OA
BRANCH  10  12
ATOM     12  O   UNL     1      -2.793   4.831  -1.024  1.00  0.00    -0.463 OA
BRANCH  12  13
ATOM     13  C   UNL     1      -3.882   5.748  -0.895  1.00  0.00     0.230 C 
ATOM     14  C   UNL     1      -4.186   6.374  -2.258  1.00  0.00     0.049 C 
ENDBRANCH  12  13
ENDBRANCH  10  12
ENDBRANCH   1  10
BRANCH   7  15
ATOM     15  C   UNL     1      -2.202   1.462  -0.981  1.00  0.00    -0.018 A 
ATOM     16  C   UNL     1      -2.930   0.294  -0.864  1.00  0.00    -0.045 A 
ATOM     17  C   UNL     1      -2.282   2.213  -2.139  1.00  0.00     0.010 A 
ATOM     18  C   UNL     1      -3.735  -0.127  -1.906  1.00  0.00     0.004 A 
ATOM     19  C   UNL     1      -2.847  -0.522   0.400  1.00  0.00     0.045 C 
ATOM     20  C   UNL     1      -3.083   1.791  -3.183  1.00  0.00    -0.051 A 
ATOM     21  C   UNL     1      -3.811   0.621  -3.066  1.00  0.00     0.004 A 
ATOM     22  C   UNL     1      -3.166   2.606  -4.448  1.00  0.00     0.044 C 
ENDBRANCH   7  15
BRANCH   2  23
ATOM     23  C   UNL     1       0.226   5.438  -0.142  1.00  0.00     0.132 C 
BRANCH  23  24
ATOM     24  S   UNL     1       0.863   6.069   1.430  1.00  0.00    -0.087 SA
BRANCH  24  25
ATOM     25  C   UNL     1       0.970   7.786   1.049  1.00  0.00     0.174 A 
ATOM     26  S   UNL     1       0.565   8.627  -0.473  1.00  0.00    -0.077 S 
ATOM     27  N   UNL     1       1.373   8.775   1.807  1.00  0.00    -0.148 NA
ATOM     28  C   UNL     1       0.972  10.286   0.052  1.00  0.00     0.184 A 
ATOM     29  N   UNL     1       1.385  10.063   1.325  1.00  0.00    -0.211 N 
ATOM     30  S   UNL     1       0.874  11.757  -0.819  1.00  0.00    -0.046 S 
BRANCH  29  31
ATOM     31  C   UNL     1       1.814  11.123   2.131  1.00  0.00     0.067 A 
ATOM     32  C   UNL     1       1.552  11.110   3.495  1.00  0.00     0.028 A 
ATOM     33  C   UNL     1       2.509  12.188   1.571  1.00  0.00     0.028 A 
ATOM     34  C   UNL     1       1.977  12.158   4.288  1.00  0.00     0.002 A 
ATOM     35  C   UNL     1       2.926  13.235   2.368  1.00  0.00     0.002 A 
ATOM     36  C   UNL     1       2.663  13.219   3.726  1.00  0.00     0.000 A 
ENDBRANCH  29  31
ENDBRANCH  24  25
ENDBRANCH  23  24
ENDBRANCH   2  23
TORSDOF 8
