REMARK SMILES Nc1c(-c2nc3ccccc3s2)c(=O)[cH-]n1/N=C/c1ccc(O)c(O)c1O
REMARK SMILES IDX 17 1 18 2 16 3 3 4 13 5 2 6 15 7 14 8 4 9 8 10 7 11 9 12
REMARK SMILES IDX 6 13 10 14 11 15 5 16 12 17 1 18 19 21 26 22 20 23 24 24
REMARK SMILES IDX 21 25 22 26 27 27 25 29 23 31
REMARK H PARENT 1 19 1 20 27 28 25 30 23 32
REMARK Flexibility Score: inf
ROOT
ATOM      1  N   UNL     1      -1.242  -2.059   0.013  1.00  0.00    -0.199 NA
ATOM      2  C   UNL     1      -0.107  -2.690  -0.001  1.00  0.00     0.143 C 
ENDROOT
BRANCH   1   3
ATOM      3  N   UNL     1      -2.443  -2.774  -0.090  1.00  0.00    -0.337 N 
ATOM      4  C   UNL     1      -4.666  -3.222  -0.275  1.00  0.00    -0.054 A 
ATOM      5  C   UNL     1      -4.064  -4.492  -0.235  1.00  0.00     0.091 A 
ATOM      6  C   UNL     1      -3.687  -2.235  -0.188  1.00  0.00    -0.018 A 
ATOM      7  C   UNL     1      -2.577  -4.237  -0.117  1.00  0.00    -0.034 A 
ATOM      8  O   UNL     1      -4.622  -5.571  -0.288  1.00  0.00    -0.317 OA
BRANCH   4   9
ATOM      9  C   UNL     1      -6.113  -2.973  -0.391  1.00  0.00     0.065 A 
ATOM     10  C   UNL     1     -10.262  -0.679  -0.709  1.00  0.00     0.002 A 
ATOM     11  C   UNL     1      -8.900  -0.582  -0.597  1.00  0.00     0.030 A 
ATOM     12  C   UNL     1     -10.899  -1.910  -0.770  1.00  0.00     0.002 A 
ATOM     13  C   UNL     1      -8.095  -1.744  -0.542  1.00  0.00     0.081 A 
ATOM     14  C   UNL     1     -10.143  -3.067  -0.718  1.00  0.00     0.021 A 
ATOM     15  C   UNL     1      -8.778  -2.980  -0.607  1.00  0.00     0.054 A 
ATOM     16  N   UNL     1      -6.753  -1.821  -0.428  1.00  0.00    -0.250 NA
ATOM     17  S   UNL     1      -7.448  -4.155  -0.508  1.00  0.00    -0.128 S 
ENDBRANCH   4   9
BRANCH   6  18
ATOM     18  N   UNL     1      -3.944  -0.894  -0.199  1.00  0.00    -0.443 N 
ATOM     19  H   UNL     1      -4.931  -0.610  -0.277  1.00  0.00     0.141 HD
ATOM     20  H   UNL     1      -3.194  -0.191  -0.132  1.00  0.00     0.141 HD
ENDBRANCH   6  18
ENDBRANCH   1   3
BRANCH   2  21
ATOM     21  C   UNL     1       1.156  -1.934  -0.005  1.00  0.00     0.040 A 
ATOM     22  C   UNL     1       1.137  -0.532   0.005  1.00  0.00     0.170 A 
ATOM     23  C   UNL     1       2.379  -2.611  -0.019  1.00  0.00     0.018 A 
ATOM     24  C   UNL     1       2.332   0.172   0.000  1.00  0.00     0.200 A 
ATOM     25  C   UNL     1       3.560  -1.901  -0.024  1.00  0.00     0.051 A 
ATOM     26  C   UNL     1       3.542  -0.512  -0.014  1.00  0.00     0.161 A 
BRANCH  22  27
ATOM     27  O   UNL     1      -0.048   0.133   0.019  1.00  0.00    -0.504 OA
ATOM     28  H   UNL     1      -0.523  -0.211   0.817  1.00  0.00     0.293 HD
ENDBRANCH  22  27
BRANCH  24  29
ATOM     29  O   UNL     1       2.319   1.533   0.010  1.00  0.00    -0.502 OA
ATOM     30  H   UNL     1       2.841   1.799  -0.788  1.00  0.00     0.293 HD
ENDBRANCH  24  29
BRANCH  26  31
ATOM     31  O   UNL     1       4.712   0.181  -0.018  1.00  0.00    -0.504 OA
ATOM     32  H   UNL     1       5.196  -0.140  -0.821  1.00  0.00     0.293 HD
ENDBRANCH  26  31
ENDBRANCH   2  21
TORSDOF 7
