REMARK SMILES COc1cc([C@@H]2C(C#N)=C(N)Oc3n[nH]c(-c4ccc(Br)cc4)c32)ccc1OC(=O)c1cccs1
REMARK SMILES IDX 3 1 4 2 5 3 25 4 26 5 27 6 2 7 1 8 28 9 29 10 30 11 31 12
REMARK SMILES IDX 35 13 32 14 34 15 33 16 6 17 7 18 24 19 10 20 13 21 16 22
REMARK SMILES IDX 12 23 14 24 15 25 8 27 9 28 11 29 17 32 23 33 18 34 22 35
REMARK SMILES IDX 19 36 20 37 21 38
REMARK H PARENT 15 26 11 30 11 31
REMARK Flexibility Score: inf
ROOT
ATOM      1  C   UNL     1      -1.939  -1.823  -2.697  1.00  0.00     0.161 A 
ATOM      2  C   UNL     1      -1.545  -1.361  -1.451  1.00  0.00     0.055 A 
ATOM      3  C   UNL     1      -0.449  -0.528  -1.338  1.00  0.00    -0.031 A 
ATOM      4  C   UNL     1       0.255  -0.148  -2.466  1.00  0.00     0.009 A 
ATOM      5  C   UNL     1      -0.130  -0.609  -3.711  1.00  0.00     0.051 A 
ATOM      6  C   UNL     1      -1.228  -1.445  -3.832  1.00  0.00     0.173 A 
ENDROOT
BRANCH   1   7
ATOM      7  O   UNL     1      -3.018  -2.643  -2.810  1.00  0.00    -0.493 OA
ATOM      8  C   UNL     1      -3.700  -2.988  -1.602  1.00  0.00     0.278 C 
ENDBRANCH   1   7
BRANCH   6   9
ATOM      9  O   UNL     1      -1.611  -1.895  -5.057  1.00  0.00    -0.418 OA
BRANCH   9  10
ATOM     10  C   UNL     1      -2.629  -1.244  -5.657  1.00  0.00     0.353 C 
ATOM     11  O   UNL     1      -3.095  -0.242  -5.149  1.00  0.00    -0.245 OA
BRANCH  10  12
ATOM     12  C   UNL     1      -3.173  -1.744  -6.921  1.00  0.00     0.113 A 
ATOM     13  S   UNL     1      -2.676  -3.168  -7.874  1.00  0.00    -0.137 S 
ATOM     14  C   UNL     1      -4.205  -1.231  -7.693  1.00  0.00     0.027 A 
ATOM     15  C   UNL     1      -3.812  -3.020  -9.175  1.00  0.00     0.066 A 
ATOM     16  C   UNL     1      -4.516  -1.904  -8.848  1.00  0.00     0.013 A 
ENDBRANCH  10  12
ENDBRANCH   9  10
ENDBRANCH   6   9
BRANCH   3  17
ATOM     17  C   UNL     1      -0.022  -0.027   0.018  1.00  0.00     0.104 C 
ATOM     18  C   UNL     1      -0.074   1.480   0.043  1.00  0.00     0.102 C 
ATOM     19  C   UNL     1       1.397  -0.451   0.295  1.00  0.00     0.055 A 
ATOM     20  C   UNL     1       1.032   2.254   0.041  1.00  0.00     0.207 C 
ATOM     21  C   UNL     1       2.473   0.459   0.283  1.00  0.00     0.244 A 
ATOM     22  C   UNL     1       1.889  -1.680   0.586  1.00  0.00     0.073 A 
ATOM     23  O   UNL     1       2.294   1.782   0.022  1.00  0.00    -0.420 OA
ATOM     24  N   UNL     1       3.566  -0.196   0.553  1.00  0.00    -0.136 NA
ATOM     25  N   UNL     1       3.239  -1.546   0.751  1.00  0.00    -0.274 N 
ATOM     26  H   UNL     1       3.900  -2.303   0.980  1.00  0.00     0.190 HD
BRANCH  18  27
ATOM     27  C   UNL     1      -1.356   2.119   0.064  1.00  0.00     0.101 C 
ATOM     28  N   UNL     1      -2.372   2.626   0.081  1.00  0.00    -0.193 NA
ENDBRANCH  18  27
BRANCH  20  29
ATOM     29  N   UNL     1       0.859   3.615   0.061  1.00  0.00    -0.369 N 
ATOM     30  H   UNL     1       1.661   4.262   0.061  1.00  0.00     0.159 HD
ATOM     31  H   UNL     1      -0.099   3.995   0.076  1.00  0.00     0.159 HD
ENDBRANCH  20  29
BRANCH  22  32
ATOM     32  C   UNL     1       1.110  -2.933   0.702  1.00  0.00     0.000 A 
ATOM     33  C   UNL     1       1.575  -4.104   0.103  1.00  0.00     0.011 A 
ATOM     34  C   UNL     1      -0.088  -2.948   1.416  1.00  0.00     0.011 A 
ATOM     35  C   UNL     1       0.844  -5.269   0.216  1.00  0.00     0.016 A 
ATOM     36  C   UNL     1      -0.812  -4.118   1.517  1.00  0.00     0.016 A 
ATOM     37  C   UNL     1      -0.347  -5.277   0.921  1.00  0.00     0.018 A 
ATOM     38  Br  UNL     1      -1.343  -6.878   1.070  1.00  0.00    -0.051 Br
ENDBRANCH  22  32
ENDBRANCH   3  17
TORSDOF 8
