REMARK SMILES Cc1ccc([N-]C(=S)NC(=O)/C=C/c2cccc3ccccc23)cc1[N+](=O)[O-]
REMARK SMILES IDX 7 1 8 2 6 3 5 4 1 5 2 6 25 7 3 8 24 9 4 10 26 11 28 12 27 13
REMARK SMILES IDX 9 14 10 15 11 17 12 18 13 19 14 20 23 21 15 22 18 23 22 24
REMARK SMILES IDX 16 25 17 26 19 27 21 28 20 29
REMARK H PARENT 9 16
REMARK Flexibility Score: inf
ROOT
ATOM      1  C   UNL     1      -1.359   1.351  -0.657  1.00  0.00     0.010 C 
ATOM      2  S   UNL     1      -1.438   2.953  -1.257  1.00  0.00    -0.090 S 
ENDROOT
BRANCH   1   3
ATOM      3  N   UNL     1      -2.445   0.789  -0.091  1.00  0.00    -0.426 NA
BRANCH   3   4
ATOM      4  C   UNL     1      -3.613   1.540   0.079  1.00  0.00    -0.034 A 
ATOM      5  C   UNL     1      -7.179   3.837   0.599  1.00  0.00     0.052 C 
ATOM      6  C   UNL     1      -5.922   3.027   0.415  1.00  0.00     0.027 A 
ATOM      7  C   UNL     1      -5.245   3.067  -0.789  1.00  0.00     0.272 A 
ATOM      8  C   UNL     1      -5.448   2.245   1.453  1.00  0.00     0.011 A 
ATOM      9  C   UNL     1      -4.092   2.327  -0.961  1.00  0.00     0.089 A 
ATOM     10  C   UNL     1      -4.299   1.497   1.286  1.00  0.00     0.004 A 
BRANCH   7  11
ATOM     11  N   UNL     1      -5.756   3.906  -1.897  1.00  0.00     0.062 N 
ATOM     12  O   UNL     1      -5.165   3.936  -2.961  1.00  0.00    -0.258 OA
ATOM     13  O   UNL     1      -6.769   4.565  -1.744  1.00  0.00    -0.258 OA
ENDBRANCH   7  11
ENDBRANCH   3   4
ENDBRANCH   1   3
BRANCH   1  14
ATOM     14  N   UNL     1      -0.211   0.651  -0.752  1.00  0.00    -0.416 N 
ATOM     15  C   UNL     1       0.874   1.211  -1.323  1.00  0.00     0.169 C 
ATOM     16  H   UNL     1      -0.162  -0.311  -0.388  1.00  0.00     0.030 HD
ATOM     17  O   UNL     1       0.818   2.350  -1.749  1.00  0.00    -0.294 OA
BRANCH  15  18
ATOM     18  C   UNL     1       2.117   0.451  -1.431  1.00  0.00     0.048 C 
ATOM     19  C   UNL     1       3.206   1.013  -2.004  1.00  0.00     0.012 C 
BRANCH  19  20
ATOM     20  C   UNL     1       4.454   0.249  -2.113  1.00  0.00    -0.018 A 
ATOM     21  C   UNL     1       5.639   0.840  -2.735  1.00  0.00    -0.011 A 
ATOM     22  C   UNL     1       4.535  -1.054  -1.630  1.00  0.00     0.009 A 
ATOM     23  C   UNL     1       6.825   0.069  -2.814  1.00  0.00    -0.018 A 
ATOM     24  C   UNL     1       5.625   2.142  -3.246  1.00  0.00     0.009 A 
ATOM     25  C   UNL     1       5.716  -1.773  -1.736  1.00  0.00     0.001 A 
ATOM     26  C   UNL     1       6.833  -1.241  -2.306  1.00  0.00     0.009 A 
ATOM     27  C   UNL     1       7.969   0.630  -3.406  1.00  0.00     0.009 A 
ATOM     28  C   UNL     1       6.752   2.654  -3.819  1.00  0.00     0.001 A 
ATOM     29  C   UNL     1       7.918   1.897  -3.903  1.00  0.00     0.001 A 
ENDBRANCH  19  20
ENDBRANCH  15  18
ENDBRANCH   1  14
TORSDOF 6
