REMARK SMILES C=C1/C(=C/C=C2\CCC[C@]3(C)[C@@H]([C@@H](C)CC(=O)[O-])CC[C@@H]23)C[C@@H](O)C[C@@H]1O
REMARK SMILES IDX 12 1 19 2 20 3 21 4 10 5 9 6 8 7 7 8 6 9 5 10 11 11 13 12
REMARK SMILES IDX 14 13 15 14 16 15 17 16 18 17 4 18 3 19 2 20 22 21 26 22
REMARK SMILES IDX 1 23 23 24 25 25 27 26 24 28
REMARK H PARENT 27 27 24 29
REMARK Flexibility Score: inf
ROOT
ATOM      1  C   UNL     1      -1.372   4.012   2.271  1.00  0.00    -0.001 C 
ATOM      2  C   UNL     1      -1.989   5.155   1.423  1.00  0.00     0.005 C 
ATOM      3  C   UNL     1      -1.748   4.775  -0.065  1.00  0.00     0.009 C 
ATOM      4  C   UNL     1      -1.603   3.253  -0.006  1.00  0.00     0.021 C 
ATOM      5  C   UNL     1      -0.718   3.081   1.261  1.00  0.00    -0.023 C 
ATOM      6  C   UNL     1      -0.660   1.605   1.579  1.00  0.00     0.008 C 
ATOM      7  C   UNL     1       0.142   0.921   0.459  1.00  0.00     0.005 C 
ATOM      8  C   UNL     1      -0.501   1.136  -0.909  1.00  0.00     0.031 C 
ATOM      9  C   UNL     1      -0.837   2.606  -1.121  1.00  0.00    -0.067 C 
ATOM     10  C   UNL     1      -0.476   3.269  -2.219  1.00  0.00    -0.000 C 
ATOM     11  C   UNL     1       0.697   3.578   0.958  1.00  0.00     0.012 C 
ENDROOT
BRANCH   1  12
ATOM     12  C   UNL     1      -0.324   4.571   3.235  1.00  0.00    -0.005 C 
ATOM     13  C   UNL     1      -0.990   5.559   4.194  1.00  0.00     0.008 C 
BRANCH  12  14
ATOM     14  C   UNL     1       0.297   3.424   4.034  1.00  0.00     0.056 C 
BRANCH  14  15
ATOM     15  C   UNL     1       1.414   3.958   4.894  1.00  0.00     0.042 C 
ATOM     16  O   UNL     1       1.685   5.135   4.870  1.00  0.00    -0.550 OA
ATOM     17  O   UNL     1       2.107   3.126   5.687  1.00  0.00    -0.550 OA
ENDBRANCH  14  15
ENDBRANCH  12  14
ENDBRANCH   1  12
BRANCH  10  18
ATOM     18  C   UNL     1       0.272   2.585  -3.276  1.00  0.00     0.004 C 
ATOM     19  C   UNL     1       0.637   3.257  -4.388  1.00  0.00    -0.040 C 
ATOM     20  C   UNL     1       1.397   2.604  -5.473  1.00  0.00    -0.023 C 
ATOM     21  C   UNL     1       0.292   4.721  -4.580  1.00  0.00     0.067 C 
ATOM     22  C   UNL     1       0.949   2.907  -6.894  1.00  0.00     0.146 C 
ATOM     23  C   UNL     1       2.421   1.789  -5.217  1.00  0.00     0.015 C 
ATOM     24  C   UNL     1      -0.268   4.902  -5.995  1.00  0.00     0.121 C 
ATOM     25  C   UNL     1       0.755   4.421  -7.024  1.00  0.00     0.068 C 
BRANCH  22  26
ATOM     26  O   UNL     1      -0.284   2.238  -7.167  1.00  0.00    -0.388 OA
ATOM     27  H   UNL     1      -0.579   2.455  -8.087  1.00  0.00     0.211 HD
ENDBRANCH  22  26
BRANCH  24  28
ATOM     28  O   UNL     1      -0.551   6.285  -6.219  1.00  0.00    -0.393 OA
ATOM     29  H   UNL     1       0.281   6.813  -6.124  1.00  0.00     0.210 HD
ENDBRANCH  24  28
ENDBRANCH  10  18
TORSDOF 6
