REMARK SMILES c1cc2c(cc1C1=[NH+]CCN1)c1cc(C3=[NH+]CCN3)ccc1n2CC1CCCCC1
REMARK SMILES IDX 1 1 2 2 3 3 4 4 5 5 6 6 12 7 13 8 14 9 20 10 21 11 22 12
REMARK SMILES IDX 23 13 7 14 11 15 8 16 10 17 9 19 24 21 25 22 30 23 26 24
REMARK SMILES IDX 29 25 27 26 28 27 15 28 19 29 16 30 18 31 17 33
REMARK H PARENT 11 18 8 20 19 32 16 34
REMARK Flexibility Score: inf
ROOT
ATOM      1  C   UNL     1       5.065  -2.966   2.243  1.00  0.00     0.019 A 
ATOM      2  C   UNL     1       3.807  -2.648   1.803  1.00  0.00     0.028 A 
ATOM      3  C   UNL     1       2.711  -2.779   2.654  1.00  0.00     0.049 A 
ATOM      4  C   UNL     1       2.908  -3.227   3.971  1.00  0.00     0.008 A 
ATOM      5  C   UNL     1       4.184  -3.548   4.416  1.00  0.00     0.027 A 
ATOM      6  C   UNL     1       5.267  -3.418   3.551  1.00  0.00     0.064 A 
ATOM      7  C   UNL     1       1.577  -3.248   4.607  1.00  0.00     0.008 A 
ATOM      8  C   UNL     1       1.131  -3.598   5.875  1.00  0.00     0.027 A 
ATOM      9  C   UNL     1      -0.225  -3.506   6.176  1.00  0.00     0.064 A 
ATOM     10  C   UNL     1      -1.128  -3.065   5.203  1.00  0.00     0.019 A 
ATOM     11  C   UNL     1      -0.689  -2.721   3.952  1.00  0.00     0.028 A 
ATOM     12  C   UNL     1       0.665  -2.806   3.634  1.00  0.00     0.049 A 
ATOM     13  N   UNL     1       1.365  -2.528   2.477  1.00  0.00    -0.340 N 
ENDROOT
BRANCH   6  14
ATOM     14  C   UNL     1       6.630  -3.757   4.014  1.00  0.00     0.275 C 
ATOM     15  N   UNL     1       7.737  -3.656   3.211  1.00  0.00    -0.270 N 
ATOM     16  N   UNL     1       6.881  -4.180   5.210  1.00  0.00    -0.270 N 
ATOM     17  C   UNL     1       8.916  -4.066   3.993  1.00  0.00     0.279 C 
ATOM     18  H   UNL     1       7.743  -3.346   2.229  1.00  0.00     0.305 HD
ATOM     19  C   UNL     1       8.320  -4.430   5.367  1.00  0.00     0.279 C 
ATOM     20  H   UNL     1       6.174  -4.321   5.946  1.00  0.00     0.305 HD
ENDBRANCH   6  14
BRANCH  13  21
ATOM     21  C   UNL     1       0.763  -2.041   1.233  1.00  0.00     0.126 C 
BRANCH  21  22
ATOM     22  C   UNL     1       0.742  -0.511   1.242  1.00  0.00     0.009 C 
ATOM     23  C   UNL     1       2.178   0.019   1.231  1.00  0.00     0.005 C 
ATOM     24  C   UNL     1       0.002  -0.004   0.002  1.00  0.00     0.005 C 
ATOM     25  C   UNL     1       2.157   1.548   1.239  1.00  0.00     0.000 C 
ATOM     26  C   UNL     1      -0.019   1.526   0.010  1.00  0.00     0.000 C 
ATOM     27  C   UNL     1       1.417   2.055  -0.000  1.00  0.00     0.000 C 
ENDBRANCH  21  22
ENDBRANCH  13  21
BRANCH   9  28
ATOM     28  C   UNL     1      -0.711  -3.875   7.524  1.00  0.00     0.275 C 
ATOM     29  N   UNL     1      -2.032  -3.802   7.885  1.00  0.00    -0.270 N 
ATOM     30  N   UNL     1       0.073  -4.289   8.464  1.00  0.00    -0.270 N 
ATOM     31  C   UNL     1      -2.154  -4.245   9.284  1.00  0.00     0.279 C 
ATOM     32  H   UNL     1      -2.806  -3.491   7.281  1.00  0.00     0.305 HD
ATOM     33  C   UNL     1      -0.701  -4.575   9.680  1.00  0.00     0.279 C 
ATOM     34  H   UNL     1       1.093  -4.402   8.375  1.00  0.00     0.305 HD
ENDBRANCH   9  28
TORSDOF 4
