REMARK SMILES Nc1nc(CSc2nnc(-c3c[nH]c4ccccc34)n2C2CC2)nc2sc3c(c12)CCCCC3
REMARK SMILES IDX 4 1 3 2 2 3 29 4 28 5 27 6 26 7 25 8 24 9 5 10 6 11 7 12
REMARK SMILES IDX 10 13 20 14 9 15 8 16 11 17 17 18 18 19 16 20 19 21 15 22
REMARK SMILES IDX 14 23 13 24 12 25 21 27 23 28 22 29 1 30 30 33 34 35 33 36
REMARK SMILES IDX 32 37 31 38
REMARK H PARENT 13 26 1 31 1 32
REMARK Flexibility Score: 90.00
ROOT
ATOM      1  C   UNL     1       4.005   2.911  -0.874  1.00  0.00     0.142 A 
ATOM      2  N   UNL     1       4.259   1.630  -1.073  1.00  0.00    -0.215 NA
ATOM      3  C   UNL     1       3.389   0.682  -0.762  1.00  0.00     0.136 A 
ATOM      4  C   UNL     1       2.138   1.052  -0.196  1.00  0.00     0.057 A 
ATOM      5  C   UNL     1       1.033   0.183   0.225  1.00  0.00    -0.021 A 
ATOM      6  C   UNL     1      -0.058   0.792   0.733  1.00  0.00     0.011 A 
ATOM      7  S   UNL     1       0.315   2.526   0.691  1.00  0.00    -0.120 S 
ATOM      8  C   UNL     1       1.939   2.434  -0.015  1.00  0.00     0.129 A 
ATOM      9  N   UNL     1       2.862   3.314  -0.354  1.00  0.00    -0.221 NA
ENDROOT
BRANCH   1  10
ATOM     10  C   UNL     1       5.044   3.935  -1.252  1.00  0.00     0.155 C 
BRANCH  10  11
ATOM     11  S   UNL     1       4.785   4.453  -2.967  1.00  0.00    -0.078 SA
BRANCH  11  12
ATOM     12  C   UNL     1       6.098   5.616  -3.136  1.00  0.00     0.192 A 
ATOM     13  C   UNL     1       7.491   7.108  -3.918  1.00  0.00     0.167 A 
ATOM     14  N   UNL     1       6.401   6.340  -4.257  1.00  0.00    -0.299 N 
ATOM     15  N   UNL     1       7.790   6.822  -2.672  1.00  0.00    -0.129 NA
ATOM     16  N   UNL     1       6.971   5.945  -2.213  1.00  0.00    -0.123 NA
BRANCH  13  17
ATOM     17  C   UNL     1       8.195   8.067  -4.793  1.00  0.00     0.045 A 
ATOM     18  C   UNL     1      10.946  10.168  -3.166  1.00  0.00     0.001 A 
ATOM     19  C   UNL     1       9.953   9.230  -3.205  1.00  0.00     0.011 A 
ATOM     20  C   UNL     1      11.292  10.875  -4.309  1.00  0.00     0.002 A 
ATOM     21  C   UNL     1       9.279   8.984  -4.400  1.00  0.00     0.010 A 
ATOM     22  C   UNL     1      10.642  10.643  -5.501  1.00  0.00     0.027 A 
ATOM     23  C   UNL     1       9.628   9.692  -5.562  1.00  0.00     0.046 A 
ATOM     24  N   UNL     1       8.812   9.245  -6.579  1.00  0.00    -0.360 N 
ATOM     25  C   UNL     1       7.965   8.281  -6.114  1.00  0.00     0.095 A 
ATOM     26  H   UNL     1       8.838   9.588  -7.550  1.00  0.00     0.166 HD
ENDBRANCH  13  17
BRANCH  14  27
ATOM     27  C   UNL     1       5.709   6.306  -5.548  1.00  0.00     0.091 C 
ATOM     28  C   UNL     1       5.529   4.942  -6.217  1.00  0.00     0.028 C 
ATOM     29  C   UNL     1       4.326   5.651  -5.590  1.00  0.00     0.028 C 
ENDBRANCH  14  27
ENDBRANCH  11  12
ENDBRANCH  10  11
ENDBRANCH   1  10
BRANCH   3  30
ATOM     30  N   UNL     1       3.692  -0.649  -0.985  1.00  0.00    -0.383 N 
ATOM     31  H   UNL     1       4.602  -0.903  -1.395  1.00  0.00     0.158 HD
ATOM     32  H   UNL     1       3.012  -1.383  -0.742  1.00  0.00     0.158 HD
ENDBRANCH   3  30
BRANCH   5  33
ATOM     33  C   UNL     1       1.130  -1.335   0.093  1.00  0.00     0.037 CG0
ATOM     34  G   UNL     1      -0.263  -1.940  -0.035  1.00  0.00     0.000 G0
ENDBRANCH   5  33
BRANCH   6  35
ATOM     35  C   UNL     1      -1.323   0.154   1.217  1.00  0.00     0.047 C 
BRANCH  35  36
ATOM     36  C   UNL     1      -0.978  -0.999   2.169  1.00  0.00     0.006 C 
BRANCH  36  37
ATOM     37  C   UNL     1      -0.829  -2.273   1.343  1.00  0.00     0.001 C 
BRANCH  37  38
ATOM     38  C   UNL     1      -0.263  -1.940  -0.035  1.00  0.00     0.005 CG0
ATOM     39  G   UNL     1       1.130  -1.335   0.093  1.00  0.00     0.000 G0
ENDBRANCH  37  38
ENDBRANCH  36  37
ENDBRANCH  35  36
ENDBRANCH   6  35
TORSDOF 6
