REMARK SMILES O=C(c1ccc(N2CCC([NH2+]CC(c3ccccc3)c3ccccc3)CC2)cc1)N1CCC[C@H](O)C1
REMARK SMILES IDX 10 1 9 2 8 3 7 4 27 5 26 6 11 7 12 10 13 11 14 12 17 13
REMARK SMILES IDX 18 14 16 15 19 16 15 17 20 18 25 19 21 20 24 21 22 22 23 23
REMARK SMILES IDX 6 24 28 25 5 26 29 27 4 28 3 29 2 30 1 31 30 32 36 33 31 34
REMARK SMILES IDX 34 35 32 36 33 37 35 38
REMARK H PARENT 11 8 11 9 35 39
REMARK Flexibility Score: inf
ROOT
ATOM      1  C   UNL     1       1.569   6.832  -0.200  1.00  0.00     0.185 C 
ATOM      2  C   UNL     1       2.676   6.655   0.843  1.00  0.00     0.086 C 
ATOM      3  C   UNL     1       2.848   5.166   1.151  1.00  0.00     0.122 C 
ATOM      4  N   UNL     1       1.582   4.621   1.658  1.00  0.00    -0.371 N 
ATOM      5  C   UNL     1       0.515   4.736   0.656  1.00  0.00     0.122 C 
ATOM      6  C   UNL     1       0.274   6.213   0.333  1.00  0.00     0.086 C 
ENDROOT
BRANCH   1   7
ATOM      7  N   UNL     1       1.362   8.271  -0.450  1.00  0.00    -0.343 N 
ATOM      8  H   UNL     1       2.265   8.761  -0.384  1.00  0.00     0.346 HD
ATOM      9  H   UNL     1       0.719   8.651   0.260  1.00  0.00     0.346 HD
BRANCH   7  10
ATOM     10  C   UNL     1       0.789   8.480  -1.793  1.00  0.00     0.273 C 
BRANCH  10  11
ATOM     11  C   UNL     1       0.586   9.979  -2.023  1.00  0.00     0.104 C 
BRANCH  11  12
ATOM     12  C   UNL     1       1.925  10.670  -2.045  1.00  0.00    -0.035 A 
ATOM     13  C   UNL     1       4.381  11.938  -2.084  1.00  0.00     0.000 A 
ATOM     14  C   UNL     1       3.381  12.394  -1.246  1.00  0.00     0.000 A 
ATOM     15  C   UNL     1       4.153  10.847  -2.902  1.00  0.00     0.000 A 
ATOM     16  C   UNL     1       2.151  11.764  -1.230  1.00  0.00     0.004 A 
ATOM     17  C   UNL     1       2.925  10.213  -2.883  1.00  0.00     0.004 A 
ENDBRANCH  11  12
BRANCH  11  18
ATOM     18  C   UNL     1      -0.112  10.194  -3.342  1.00  0.00    -0.035 A 
ATOM     19  C   UNL     1      -1.252  10.974  -3.401  1.00  0.00     0.004 A 
ATOM     20  C   UNL     1       0.391   9.617  -4.492  1.00  0.00     0.004 A 
ATOM     21  C   UNL     1      -1.891  11.172  -4.611  1.00  0.00     0.000 A 
ATOM     22  C   UNL     1      -0.252   9.810  -5.701  1.00  0.00     0.000 A 
ATOM     23  C   UNL     1      -1.391  10.590  -5.760  1.00  0.00     0.000 A 
ENDBRANCH  11  18
ENDBRANCH  10  11
ENDBRANCH   7  10
ENDBRANCH   1   7
BRANCH   4  24
ATOM     24  C   UNL     1       1.737   3.303   2.072  1.00  0.00     0.037 A 
ATOM     25  C   UNL     1       2.981   2.685   1.969  1.00  0.00     0.027 A 
ATOM     26  C   UNL     1       0.649   2.604   2.587  1.00  0.00     0.027 A 
ATOM     27  C   UNL     1       3.138   1.380   2.377  1.00  0.00     0.016 A 
ATOM     28  C   UNL     1       0.800   1.299   2.997  1.00  0.00     0.016 A 
ATOM     29  C   UNL     1       2.047   0.675   2.895  1.00  0.00     0.040 A 
BRANCH  29  30
ATOM     30  C   UNL     1       2.212  -0.724   3.334  1.00  0.00     0.253 C 
ATOM     31  O   UNL     1       1.357  -1.548   3.072  1.00  0.00    -0.269 OA
BRANCH  30  32
ATOM     32  N   UNL     1       3.309  -1.088   4.026  1.00  0.00    -0.336 N 
ATOM     33  C   UNL     1       3.446  -2.454   4.549  1.00  0.00     0.151 C 
ATOM     34  C   UNL     1       4.396  -0.128   4.267  1.00  0.00     0.120 C 
ATOM     35  C   UNL     1       3.742  -2.380   6.050  1.00  0.00     0.134 C 
ATOM     36  C   UNL     1       4.678  -0.078   5.776  1.00  0.00     0.024 C 
ATOM     37  C   UNL     1       4.968  -1.494   6.281  1.00  0.00     0.035 C 
BRANCH  35  38
ATOM     38  O   UNL     1       4.001  -3.693   6.551  1.00  0.00    -0.391 OA
ATOM     39  H   UNL     1       4.195  -3.646   7.520  1.00  0.00     0.211 HD
ENDBRANCH  35  38
ENDBRANCH  30  32
ENDBRANCH  29  30
ENDBRANCH   4  24
TORSDOF 9
