REMARK SMILES CCNC(=O)N1[C@@H](c2ccccc2)[C@@H]2C(=O)[C@@H]([C@H](c3ccccc3)[NH2+][C@@H]2c2ccccc2)[C@@H]1c1ccccc1
REMARK SMILES IDX 6 1 33 2 17 3 18 4 25 5 26 6 14 7 7 8 15 9 16 10 4 13 3 14
REMARK SMILES IDX 5 16 2 17 1 18 8 19 13 20 9 21 12 22 10 23 11 24 34 25 39 26
REMARK SMILES IDX 35 27 38 28 36 29 37 30 27 31 32 32 28 33 31 34 29 35 30 36
REMARK SMILES IDX 19 37 24 38 20 39 23 40 21 41 22 42
REMARK H PARENT 25 11 25 12 3 15
REMARK Flexibility Score: inf
ROOT
ATOM      1  N   UNL     1      -5.405   1.690   0.027  1.00  0.00    -0.309 N 
ATOM      2  C   UNL     1      -6.122   1.347   1.262  1.00  0.00     0.135 C 
ATOM      3  C   UNL     1      -5.485   0.082   1.863  1.00  0.00     0.147 C 
ATOM      4  C   UNL     1      -4.028   0.405   2.226  1.00  0.00     0.227 C 
ATOM      5  N   UNL     1      -3.314   0.846   1.022  1.00  0.00    -0.333 N 
ATOM      6  C   UNL     1      -3.227  -0.216   0.013  1.00  0.00     0.227 C 
ATOM      7  C   UNL     1      -4.640  -0.574  -0.472  1.00  0.00     0.147 C 
ATOM      8  C   UNL     1      -5.290   0.699  -1.050  1.00  0.00     0.135 C 
ATOM      9  C   UNL     1      -5.448  -0.965   0.758  1.00  0.00     0.156 C 
ATOM     10  O   UNL     1      -6.018  -2.026   0.850  1.00  0.00    -0.298 OA
ATOM     11  H   UNL     1      -2.362   1.141   1.282  1.00  0.00     0.347 HD
ATOM     12  H   UNL     1      -3.805   1.655   0.616  1.00  0.00     0.347 HD
ENDROOT
BRANCH   1  13
ATOM     13  C   UNL     1      -4.859   2.913  -0.119  1.00  0.00     0.318 C 
ATOM     14  N   UNL     1      -4.598   3.669   0.966  1.00  0.00    -0.338 N 
ATOM     15  H   UNL     1      -4.845   3.325   1.905  1.00  0.00     0.165 HD
ATOM     16  O   UNL     1      -4.601   3.335  -1.230  1.00  0.00    -0.249 OA
BRANCH  14  17
ATOM     17  C   UNL     1      -3.965   4.981   0.810  1.00  0.00     0.114 C 
ATOM     18  C   UNL     1      -4.226   5.825   2.060  1.00  0.00     0.027 C 
ENDBRANCH  14  17
ENDBRANCH   1  13
BRANCH   8  19
ATOM     19  C   UNL     1      -4.429   1.252  -2.157  1.00  0.00    -0.024 A 
ATOM     20  C   UNL     1      -4.745   0.988  -3.476  1.00  0.00     0.006 A 
ATOM     21  C   UNL     1      -3.327   2.029  -1.852  1.00  0.00     0.006 A 
ATOM     22  C   UNL     1      -3.956   1.495  -4.491  1.00  0.00     0.000 A 
ATOM     23  C   UNL     1      -2.535   2.533  -2.867  1.00  0.00     0.000 A 
ATOM     24  C   UNL     1      -2.850   2.267  -4.186  1.00  0.00     0.000 A 
ENDBRANCH   8  19
BRANCH   2  25
ATOM     25  C   UNL     1      -7.572   1.083   0.948  1.00  0.00    -0.024 A 
ATOM     26  C   UNL     1      -8.559   1.828   1.566  1.00  0.00     0.006 A 
ATOM     27  C   UNL     1      -7.915   0.101   0.038  1.00  0.00     0.006 A 
ATOM     28  C   UNL     1      -9.889   1.586   1.278  1.00  0.00     0.000 A 
ATOM     29  C   UNL     1      -9.245  -0.145  -0.245  1.00  0.00     0.000 A 
ATOM     30  C   UNL     1     -10.232   0.600   0.372  1.00  0.00     0.000 A 
ENDBRANCH   2  25
BRANCH   6  31
ATOM     31  C   UNL     1      -2.401   0.264  -1.153  1.00  0.00     0.010 A 
ATOM     32  C   UNL     1      -1.536   1.330  -0.995  1.00  0.00     0.010 A 
ATOM     33  C   UNL     1      -2.506  -0.365  -2.380  1.00  0.00     0.010 A 
ATOM     34  C   UNL     1      -0.778   1.770  -2.064  1.00  0.00     0.001 A 
ATOM     35  C   UNL     1      -1.752   0.079  -3.450  1.00  0.00     0.001 A 
ATOM     36  C   UNL     1      -0.887   1.145  -3.292  1.00  0.00     0.000 A 
ENDBRANCH   6  31
BRANCH   4  37
ATOM     37  C   UNL     1      -3.998   1.503   3.258  1.00  0.00     0.010 A 
ATOM     38  C   UNL     1      -4.935   1.522   4.274  1.00  0.00     0.010 A 
ATOM     39  C   UNL     1      -3.030   2.488   3.192  1.00  0.00     0.010 A 
ATOM     40  C   UNL     1      -4.908   2.529   5.221  1.00  0.00     0.001 A 
ATOM     41  C   UNL     1      -3.006   3.498   4.136  1.00  0.00     0.001 A 
ATOM     42  C   UNL     1      -3.943   3.517   5.152  1.00  0.00     0.000 A 
ENDBRANCH   4  37
TORSDOF 6
