REMARK SMILES O=C(NCc1ccccc1)[C@@H](Cc1c[nH]c2ccccc12)NS(=O)(=O)c1ccc(Cl)cc1
REMARK SMILES IDX 11 1 2 2 3 3 1 5 4 6 5 7 8 8 9 9 7 10 10 11 6 12 12 13 13 14
REMARK SMILES IDX 21 15 14 16 16 17 20 18 15 19 17 20 19 21 18 23 22 24 23 26
REMARK SMILES IDX 24 27 25 28 26 29 32 30 27 31 31 32 28 33 29 34 30 35
REMARK H PARENT 3 4 15 22 22 25
REMARK Flexibility Score: inf
ROOT
ATOM      1  C   UNL     1       2.285  -2.545  -2.539  1.00  0.00     0.163 C 
ENDROOT
BRANCH   1   2
ATOM      2  C   UNL     1       2.404  -3.564  -3.643  1.00  0.00     0.238 C 
ATOM      3  N   UNL     1       3.300  -3.382  -4.634  1.00  0.00    -0.351 N 
ATOM      4  H   UNL     1       3.902  -2.547  -4.637  1.00  0.00     0.163 HD
ATOM      5  O   UNL     1       1.695  -4.547  -3.639  1.00  0.00    -0.273 OA
BRANCH   3   6
ATOM      6  C   UNL     1       3.416  -4.373  -5.707  1.00  0.00     0.151 C 
BRANCH   6   7
ATOM      7  C   UNL     1       4.480  -3.937  -6.680  1.00  0.00    -0.029 A 
ATOM      8  C   UNL     1       6.434  -3.137  -8.466  1.00  0.00     0.000 A 
ATOM      9  C   UNL     1       5.122  -2.746  -8.655  1.00  0.00     0.000 A 
ATOM     10  C   UNL     1       6.769  -3.929  -7.384  1.00  0.00     0.000 A 
ATOM     11  C   UNL     1       4.144  -3.150  -7.765  1.00  0.00     0.005 A 
ATOM     12  C   UNL     1       5.792  -4.329  -6.491  1.00  0.00     0.005 A 
ENDBRANCH   6   7
ENDBRANCH   3   6
ENDBRANCH   1   2
BRANCH   1  13
ATOM     13  C   UNL     1       1.905  -1.188  -3.136  1.00  0.00     0.068 C 
BRANCH  13  14
ATOM     14  C   UNL     1       1.896  -0.145  -2.049  1.00  0.00    -0.021 A 
ATOM     15  C   UNL     1       3.051   0.608  -1.554  1.00  0.00     0.003 A 
ATOM     16  C   UNL     1       0.830   0.265  -1.345  1.00  0.00     0.087 A 
ATOM     17  C   UNL     1       2.558   1.460  -0.548  1.00  0.00     0.046 A 
ATOM     18  C   UNL     1       4.409   0.625  -1.877  1.00  0.00     0.010 A 
ATOM     19  N   UNL     1       1.206   1.224  -0.444  1.00  0.00    -0.361 N 
ATOM     20  C   UNL     1       3.436   2.312   0.113  1.00  0.00     0.026 A 
ATOM     21  C   UNL     1       5.255   1.468  -1.212  1.00  0.00     0.001 A 
ATOM     22  H   UNL     1       0.572   1.699   0.215  1.00  0.00     0.166 HD
ATOM     23  C   UNL     1       4.774   2.308  -0.217  1.00  0.00     0.002 A 
ENDBRANCH  13  14
ENDBRANCH   1  13
BRANCH   1  24
ATOM     24  N   UNL     1       1.250  -2.969  -1.593  1.00  0.00    -0.198 NA
ATOM     25  H   UNL     1       0.262  -2.737  -1.772  1.00  0.00     0.142 HD
BRANCH  24  26
ATOM     26  S   UNL     1       1.668  -3.820  -0.235  1.00  0.00     0.241 S 
ATOM     27  O   UNL     1       2.490  -4.895  -0.667  1.00  0.00    -0.207 OA
ATOM     28  O   UNL     1       0.469  -4.026   0.500  1.00  0.00    -0.207 OA
BRANCH  26  29
ATOM     29  C   UNL     1       2.686  -2.769   0.746  1.00  0.00     0.082 A 
ATOM     30  C   UNL     1       4.062  -2.845   0.638  1.00  0.00     0.023 A 
ATOM     31  C   UNL     1       2.109  -1.870   1.623  1.00  0.00     0.023 A 
ATOM     32  C   UNL     1       4.862  -2.021   1.408  1.00  0.00     0.022 A 
ATOM     33  C   UNL     1       2.908  -1.046   2.393  1.00  0.00     0.022 A 
ATOM     34  C   UNL     1       4.285  -1.121   2.286  1.00  0.00     0.041 A 
ATOM     35  Cl  UNL     1       5.288  -0.085   3.253  1.00  0.00    -0.084 Cl
ENDBRANCH  26  29
ENDBRANCH  24  26
ENDBRANCH   1  24
TORSDOF 8
