REMARK SMILES Cc1ccc(C)c([C@H](C)NC(=O)c2cc(C(=O)N[C@@H](C)c3cc(C)ccc3C)cc(C(=O)N[C@@H](C)c3cc(C)ccc3C)c2)c1
REMARK SMILES IDX 13 1 44 2 30 3 29 4 15 5 14 6 11 7 10 8 12 10 8 11 9 12 7 13
REMARK SMILES IDX 1 14 2 15 45 16 3 17 4 18 5 19 6 20 16 21 17 22 18 23 19 25
REMARK SMILES IDX 20 26 21 27 27 28 22 29 26 30 28 31 23 32 25 33 24 34 31 35
REMARK SMILES IDX 32 36 33 37 34 39 35 40 36 41 42 42 37 43 41 44 43 45 38 46
REMARK SMILES IDX 40 47 39 48
REMARK H PARENT 10 9 18 24 33 38
REMARK Flexibility Score: inf
ROOT
ATOM      1  C   UNL     1       0.505   2.227   2.199  1.00  0.00     0.041 A 
ATOM      2  C   UNL     1      -0.625   1.412   2.141  1.00  0.00     0.027 A 
ATOM      3  C   UNL     1      -1.877   1.972   1.891  1.00  0.00     0.041 A 
ATOM      4  C   UNL     1      -2.001   3.349   1.709  1.00  0.00     0.027 A 
ATOM      5  C   UNL     1      -0.871   4.164   1.768  1.00  0.00     0.041 A 
ATOM      6  C   UNL     1       0.382   3.603   2.013  1.00  0.00     0.027 A 
ENDROOT
BRANCH   1   7
ATOM      7  C   UNL     1       1.833   1.632   2.459  1.00  0.00     0.251 C 
ATOM      8  N   UNL     1       2.925   2.420   2.515  1.00  0.00    -0.346 N 
ATOM      9  H   UNL     1       2.834   3.437   2.377  1.00  0.00     0.164 HD
ATOM     10  O   UNL     1       1.941   0.432   2.622  1.00  0.00    -0.269 OA
BRANCH   8  11
ATOM     11  C   UNL     1       4.242   1.831   2.772  1.00  0.00     0.110 C 
ATOM     12  C   UNL     1       4.893   1.438   1.445  1.00  0.00     0.036 C 
BRANCH  11  13
ATOM     13  C   UNL     1       5.112   2.836   3.481  1.00  0.00    -0.023 A 
ATOM     14  C   UNL     1       5.418   6.586   3.798  1.00  0.00     0.044 C 
ATOM     15  C   UNL     1       5.675   5.111   3.971  1.00  0.00    -0.051 A 
ATOM     16  C   UNL     1       4.880   4.189   3.317  1.00  0.00     0.009 A 
ATOM     17  C   UNL     1       6.710   4.680   4.780  1.00  0.00     0.004 A 
ATOM     18  C   UNL     1       6.946   3.328   4.940  1.00  0.00     0.004 A 
ATOM     19  C   UNL     1       6.147   2.405   4.290  1.00  0.00    -0.046 A 
ATOM     20  C   UNL     1       6.404   0.931   4.464  1.00  0.00     0.045 C 
ENDBRANCH  11  13
ENDBRANCH   8  11
ENDBRANCH   1   7
BRANCH   5  21
ATOM     21  C   UNL     1      -1.002   5.624   1.570  1.00  0.00     0.251 C 
ATOM     22  O   UNL     1      -0.035   6.346   1.715  1.00  0.00    -0.269 OA
ATOM     23  N   UNL     1      -2.193   6.154   1.230  1.00  0.00    -0.346 N 
ATOM     24  H   UNL     1      -3.029   5.554   1.182  1.00  0.00     0.164 HD
BRANCH  23  25
ATOM     25  C   UNL     1      -2.300   7.583   0.927  1.00  0.00     0.110 C 
ATOM     26  C   UNL     1      -2.062   7.808  -0.567  1.00  0.00     0.036 C 
BRANCH  25  27
ATOM     27  C   UNL     1      -3.676   8.074   1.297  1.00  0.00    -0.023 A 
ATOM     28  C   UNL     1      -3.871   9.402   1.624  1.00  0.00    -0.046 A 
ATOM     29  C   UNL     1      -4.744   7.196   1.303  1.00  0.00     0.009 A 
ATOM     30  C   UNL     1      -5.134   9.852   1.963  1.00  0.00     0.004 A 
ATOM     31  C   UNL     1      -2.708  10.361   1.612  1.00  0.00     0.045 C 
ATOM     32  C   UNL     1      -6.005   7.645   1.647  1.00  0.00    -0.051 A 
ATOM     33  C   UNL     1      -6.201   8.974   1.974  1.00  0.00     0.004 A 
ATOM     34  C   UNL     1      -7.168   6.687   1.659  1.00  0.00     0.044 C 
ENDBRANCH  25  27
ENDBRANCH  23  25
ENDBRANCH   5  21
BRANCH   3  35
ATOM     35  C   UNL     1      -3.074   1.107   1.823  1.00  0.00     0.251 C 
ATOM     36  O   UNL     1      -4.149   1.580   1.510  1.00  0.00    -0.269 OA
ATOM     37  N   UNL     1      -2.973  -0.206   2.108  1.00  0.00    -0.346 N 
ATOM     38  H   UNL     1      -2.080  -0.593   2.445  1.00  0.00     0.164 HD
BRANCH  37  39
ATOM     39  C   UNL     1      -4.134  -1.084   1.940  1.00  0.00     0.110 C 
ATOM     40  C   UNL     1      -4.259  -1.487   0.469  1.00  0.00     0.036 C 
BRANCH  39  41
ATOM     41  C   UNL     1      -3.958  -2.318   2.786  1.00  0.00    -0.023 A 
ATOM     42  C   UNL     1      -5.066  -3.007   3.243  1.00  0.00    -0.046 A 
ATOM     43  C   UNL     1      -2.688  -2.765   3.100  1.00  0.00     0.009 A 
ATOM     44  C   UNL     1      -4.904  -4.140   4.019  1.00  0.00     0.004 A 
ATOM     45  C   UNL     1      -6.450  -2.523   2.895  1.00  0.00     0.045 C 
ATOM     46  C   UNL     1      -2.526  -3.895   3.880  1.00  0.00    -0.051 A 
ATOM     47  C   UNL     1      -3.635  -4.584   4.337  1.00  0.00     0.004 A 
ATOM     48  C   UNL     1      -1.142  -4.379   4.228  1.00  0.00     0.044 C 
ENDBRANCH  39  41
ENDBRANCH  37  39
ENDBRANCH   3  35
TORSDOF 9
