REMARK SMILES C=C(NNC(=O)c1ccc(COc2ccc3ccccc3c2)o1)c1cccc(NC(=O)c2cccc(F)c2)c1
REMARK SMILES IDX 4 1 5 2 6 3 3 5 2 7 1 8 24 9 39 10 25 11 28 12 26 13 27 14
REMARK SMILES IDX 29 15 30 16 31 18 32 19 38 20 33 21 36 22 34 23 35 24 37 25
REMARK SMILES IDX 7 26 23 27 8 28 10 29 9 30 11 31 12 32 13 33 22 34 14 35
REMARK SMILES IDX 21 36 15 37 16 38 20 39 17 40 19 41 18 42
REMARK H PARENT 4 4 3 6 29 17
REMARK Flexibility Score: inf
ROOT
ATOM      1  N   UNL     1       2.190  12.604  -2.908  1.00  0.00    -0.263 N 
ATOM      2  C   UNL     1       2.181  12.774  -1.571  1.00  0.00     0.305 C 
ATOM      3  O   UNL     1       1.873  13.852  -1.097  1.00  0.00    -0.264 OA
ATOM      4  H   UNL     1       2.451  11.691  -3.308  1.00  0.00     0.191 HD
ENDROOT
BRANCH   1   5
ATOM      5  N   UNL     1       1.844  13.667  -3.752  1.00  0.00    -0.298 N 
ATOM      6  H   UNL     1       1.583  14.579  -3.351  1.00  0.00     0.188 HD
BRANCH   5   7
ATOM      7  C   UNL     1       1.853  13.490  -5.136  1.00  0.00     0.054 C 
ATOM      8  C   UNL     1       2.190  12.309  -5.655  1.00  0.00     0.039 C 
BRANCH   7   9
ATOM      9  C   UNL     1       1.487  14.614  -6.029  1.00  0.00     0.001 A 
ATOM     10  C   UNL     1       1.495  14.439  -7.411  1.00  0.00     0.036 A 
ATOM     11  C   UNL     1       1.128  15.848  -5.488  1.00  0.00     0.010 A 
ATOM     12  C   UNL     1       1.151  15.496  -8.241  1.00  0.00     0.042 A 
ATOM     13  C   UNL     1       0.792  16.896  -6.321  1.00  0.00     0.003 A 
ATOM     14  C   UNL     1       0.800  16.723  -7.693  1.00  0.00     0.026 A 
BRANCH  12  15
ATOM     15  N   UNL     1       1.157  15.325  -9.629  1.00  0.00    -0.322 N 
ATOM     16  C   UNL     1       0.828  14.133 -10.163  1.00  0.00     0.255 C 
ATOM     17  H   UNL     1       1.414  16.111 -10.243  1.00  0.00     0.170 HD
ATOM     18  O   UNL     1       0.432  13.234  -9.446  1.00  0.00    -0.269 OA
BRANCH  16  19
ATOM     19  C   UNL     1       0.946  13.918 -11.621  1.00  0.00     0.043 A 
ATOM     20  C   UNL     1       1.394  14.949 -12.447  1.00  0.00     0.053 A 
ATOM     21  C   UNL     1       0.605  12.683 -12.177  1.00  0.00     0.014 A 
ATOM     22  C   UNL     1       1.507  14.739 -13.809  1.00  0.00     0.124 A 
ATOM     23  C   UNL     1       0.718  12.488 -13.538  1.00  0.00     0.004 A 
ATOM     24  C   UNL     1       1.167  13.511 -14.353  1.00  0.00     0.039 A 
ATOM     25  F   UNL     1       1.945  15.735 -14.610  1.00  0.00    -0.207 F 
ENDBRANCH  16  19
ENDBRANCH  12  15
ENDBRANCH   7   9
ENDBRANCH   5   7
ENDBRANCH   1   5
BRANCH   2  26
ATOM     26  C   UNL     1       2.543  11.662  -0.687  1.00  0.00     0.193 A 
ATOM     27  O   UNL     1       2.908  10.424  -1.080  1.00  0.00    -0.452 OA
ATOM     28  C   UNL     1       2.576  11.698   0.678  1.00  0.00     0.057 A 
ATOM     29  C   UNL     1       3.162   9.672  -0.001  1.00  0.00     0.142 A 
ATOM     30  C   UNL     1       2.972  10.422   1.107  1.00  0.00     0.050 A 
BRANCH  29  31
ATOM     31  C   UNL     1       3.595   8.228  -0.019  1.00  0.00     0.304 C 
BRANCH  31  32
ATOM     32  O   UNL     1       2.441   7.385   0.016  1.00  0.00    -0.486 OA
BRANCH  32  33
ATOM     33  C   UNL     1       2.658   6.043   0.005  1.00  0.00     0.120 A 
ATOM     34  C   UNL     1       1.593   5.189   0.038  1.00  0.00     0.055 A 
ATOM     35  C   UNL     1       3.967   5.556  -0.039  1.00  0.00     0.047 A 
ATOM     36  C   UNL     1       1.815   3.802   0.027  1.00  0.00    -0.015 A 
ATOM     37  C   UNL     1       4.216   4.219  -0.050  1.00  0.00     0.012 A 
ATOM     38  C   UNL     1       3.143   3.310  -0.017  1.00  0.00    -0.018 A 
ATOM     39  C   UNL     1       0.744   2.892   0.060  1.00  0.00     0.009 A 
ATOM     40  C   UNL     1       3.364   1.923  -0.028  1.00  0.00     0.009 A 
ATOM     41  C   UNL     1       0.995   1.555   0.042  1.00  0.00     0.001 A 
ATOM     42  C   UNL     1       2.302   1.071   0.004  1.00  0.00     0.001 A 
ENDBRANCH  32  33
ENDBRANCH  31  32
ENDBRANCH  29  31
ENDBRANCH   2  26
TORSDOF 9
