REMARK SMILES Cc1cc(N2CCCCC2)nc2ccc(NC(=O)CCC(=O)NCC3(c4ccccc4)CCCC3)cc12
REMARK SMILES IDX 20 1 19 2 17 3 16 4 18 6 15 7 1 8 2 9 37 10 3 11 12 12 36 13
REMARK SMILES IDX 4 14 13 15 11 16 14 17 5 18 10 19 6 20 9 21 7 22 8 23 21 24
REMARK SMILES IDX 22 25 23 26 24 28 25 29 35 30 32 31 34 32 33 33 26 34 31 35
REMARK SMILES IDX 27 36 30 37 28 38 29 39
REMARK H PARENT 16 5 23 27
REMARK Flexibility Score: inf
ROOT
ATOM      1  C   UNL     1       4.382   0.001   0.462  1.00  0.00     0.110 C 
ENDROOT
BRANCH   1   2
ATOM      2  C   UNL     1       2.919   0.448   0.447  1.00  0.00     0.110 C 
BRANCH   2   3
ATOM      3  C   UNL     1       2.027  -0.756   0.291  1.00  0.00     0.224 C 
ATOM      4  N   UNL     1       0.689  -0.603   0.247  1.00  0.00    -0.326 N 
ATOM      5  H   UNL     1       0.271   0.326   0.402  1.00  0.00     0.169 HD
ATOM      6  O   UNL     1       2.514  -1.864   0.201  1.00  0.00    -0.275 OA
BRANCH   4   7
ATOM      7  C   UNL     1      -0.134  -1.706  -0.010  1.00  0.00     0.041 A 
ATOM      8  C   UNL     1      -4.002  -1.937   1.828  1.00  0.00     0.045 C 
ATOM      9  C   UNL     1      -3.476  -3.005   0.903  1.00  0.00    -0.038 A 
ATOM     10  C   UNL     1      -2.198  -2.890   0.319  1.00  0.00     0.005 A 
ATOM     11  C   UNL     1      -4.224  -4.105   0.610  1.00  0.00     0.051 A 
ATOM     12  C   UNL     1      -1.740  -3.914  -0.546  1.00  0.00     0.073 A 
ATOM     13  C   UNL     1      -1.377  -1.782   0.580  1.00  0.00     0.036 A 
ATOM     14  C   UNL     1      -3.715  -5.085  -0.254  1.00  0.00     0.129 A 
ATOM     15  C   UNL     1      -0.467  -3.803  -1.130  1.00  0.00     0.031 A 
ATOM     16  N   UNL     1      -2.495  -5.028  -0.844  1.00  0.00    -0.231 NA
ATOM     17  C   UNL     1       0.310  -2.718  -0.867  1.00  0.00     0.028 A 
BRANCH  14  18
ATOM     18  N   UNL     1      -4.488  -6.201  -0.543  1.00  0.00    -0.357 N 
ATOM     19  C   UNL     1      -3.783  -7.106  -1.460  1.00  0.00     0.118 C 
ATOM     20  C   UNL     1      -4.888  -6.897   0.686  1.00  0.00     0.118 C 
ATOM     21  C   UNL     1      -4.717  -8.247  -1.871  1.00  0.00     0.022 C 
ATOM     22  C   UNL     1      -5.855  -8.032   0.340  1.00  0.00     0.022 C 
ATOM     23  C   UNL     1      -5.167  -9.007  -0.620  1.00  0.00     0.004 C 
ENDBRANCH  14  18
ENDBRANCH   4   7
ENDBRANCH   2   3
ENDBRANCH   1   2
BRANCH   1  24
ATOM     24  C   UNL     1       5.274   1.206   0.617  1.00  0.00     0.220 C 
ATOM     25  O   UNL     1       4.787   2.313   0.708  1.00  0.00    -0.275 OA
ATOM     26  N   UNL     1       6.612   1.052   0.656  1.00  0.00    -0.355 N 
ATOM     27  H   UNL     1       7.026   0.112   0.579  1.00  0.00     0.163 HD
BRANCH  26  28
ATOM     28  C   UNL     1       7.480   2.224   0.807  1.00  0.00     0.127 C 
BRANCH  28  29
ATOM     29  C   UNL     1       8.937   1.769   0.909  1.00  0.00     0.013 C 
ATOM     30  C   UNL     1       9.848   2.978   1.206  1.00  0.00     0.013 C 
ATOM     31  C   UNL     1       9.104   0.793   2.087  1.00  0.00     0.013 C 
ATOM     32  C   UNL     1      10.017   2.958   2.745  1.00  0.00     0.001 C 
ATOM     33  C   UNL     1      10.111   1.444   3.059  1.00  0.00     0.001 C 
BRANCH  29  34
ATOM     34  C   UNL     1       9.362   1.106  -0.376  1.00  0.00    -0.040 A 
ATOM     35  C   UNL     1       8.508   1.097  -1.464  1.00  0.00     0.004 A 
ATOM     36  C   UNL     1      10.607   0.512  -0.469  1.00  0.00     0.004 A 
ATOM     37  C   UNL     1       8.898   0.489  -2.642  1.00  0.00     0.000 A 
ATOM     38  C   UNL     1      10.994  -0.100  -1.646  1.00  0.00     0.000 A 
ATOM     39  C   UNL     1      10.141  -0.110  -2.733  1.00  0.00     0.000 A 
ENDBRANCH  29  34
ENDBRANCH  28  29
ENDBRANCH  26  28
ENDBRANCH   1  24
TORSDOF 8
