REMARK SMILES O=C(N[C@@H](c1ccccc1)c1ccc2[nH]cnc2c1)c1ccc(-n2cnc3ccccc3c2=O)cc1
REMARK SMILES IDX 3 1 2 2 1 3 4 5 5 6 8 7 9 8 7 9 10 10 6 11 11 12 19 13 12 14
REMARK SMILES IDX 18 15 13 16 14 17 17 18 15 19 16 20 20 22 36 23 21 24 35 25
REMARK SMILES IDX 22 26 23 27 24 28 33 29 25 30 32 31 34 32 26 33 27 34 31 35
REMARK SMILES IDX 28 36 30 37 29 38
REMARK H PARENT 3 4 15 21
REMARK Flexibility Score: inf
ROOT
ATOM      1  N   UNL     1      -0.987   7.791   0.896  1.00  0.00    -0.341 N 
ATOM      2  C   UNL     1      -1.725   8.739   1.508  1.00  0.00     0.252 C 
ATOM      3  O   UNL     1      -2.925   8.787   1.323  1.00  0.00    -0.269 OA
ATOM      4  H   UNL     1       0.030   7.750   1.052  1.00  0.00     0.164 HD
ENDROOT
BRANCH   1   5
ATOM      5  C   UNL     1      -1.632   6.819   0.009  1.00  0.00     0.143 C 
BRANCH   5   6
ATOM      6  C   UNL     1      -1.759   7.407  -1.372  1.00  0.00    -0.021 A 
ATOM      7  C   UNL     1      -1.992   8.486  -3.907  1.00  0.00     0.000 A 
ATOM      8  C   UNL     1      -0.844   8.701  -3.167  1.00  0.00     0.000 A 
ATOM      9  C   UNL     1      -3.023   7.732  -3.379  1.00  0.00     0.000 A 
ATOM     10  C   UNL     1      -0.729   8.165  -1.898  1.00  0.00     0.006 A 
ATOM     11  C   UNL     1      -2.907   7.193  -2.112  1.00  0.00     0.006 A 
ENDBRANCH   5   6
BRANCH   5  12
ATOM     12  C   UNL     1      -0.798   5.566  -0.053  1.00  0.00    -0.019 A 
ATOM     13  C   UNL     1      -1.411   4.345  -0.058  1.00  0.00     0.036 A 
ATOM     14  C   UNL     1       0.586   5.662  -0.105  1.00  0.00     0.008 A 
ATOM     15  C   UNL     1      -0.643   3.179  -0.116  1.00  0.00     0.089 A 
ATOM     16  C   UNL     1       1.364   4.526  -0.162  1.00  0.00     0.029 A 
ATOM     17  C   UNL     1       0.758   3.277  -0.169  1.00  0.00     0.065 A 
ATOM     18  N   UNL     1      -0.948   1.857  -0.140  1.00  0.00    -0.237 NA
ATOM     19  N   UNL     1       1.228   1.980  -0.218  1.00  0.00    -0.345 N 
ATOM     20  C   UNL     1       0.147   1.156  -0.195  1.00  0.00     0.197 A 
ATOM     21  H   UNL     1       2.216   1.690  -0.264  1.00  0.00     0.168 HD
ENDBRANCH   5  12
ENDBRANCH   1   5
BRANCH   2  22
ATOM     22  C   UNL     1      -1.075   9.718   2.401  1.00  0.00     0.039 A 
ATOM     23  C   UNL     1      -1.839  10.701   3.036  1.00  0.00     0.016 A 
ATOM     24  C   UNL     1       0.304   9.660   2.619  1.00  0.00     0.016 A 
ATOM     25  C   UNL     1      -1.229  11.613   3.869  1.00  0.00     0.027 A 
ATOM     26  C   UNL     1       0.907  10.578   3.450  1.00  0.00     0.027 A 
ATOM     27  C   UNL     1       0.144  11.555   4.080  1.00  0.00     0.050 A 
BRANCH  27  28
ATOM     28  N   UNL     1       0.759  12.481   4.926  1.00  0.00    -0.267 N 
ATOM     29  C   UNL     1       0.819  13.784   4.564  1.00  0.00     0.265 A 
ATOM     30  C   UNL     1       1.298  12.064   6.104  1.00  0.00     0.208 A 
ATOM     31  C   UNL     1       1.473  14.715   5.495  1.00  0.00     0.066 A 
ATOM     32  O   UNL     1       0.346  14.170   3.511  1.00  0.00    -0.268 OA
ATOM     33  N   UNL     1       1.885  12.863   6.942  1.00  0.00    -0.238 NA
ATOM     34  C   UNL     1       2.003  14.192   6.695  1.00  0.00     0.078 A 
ATOM     35  C   UNL     1       1.583  16.077   5.218  1.00  0.00     0.016 A 
ATOM     36  C   UNL     1       2.635  15.051   7.596  1.00  0.00     0.029 A 
ATOM     37  C   UNL     1       2.211  16.905   6.123  1.00  0.00     0.001 A 
ATOM     38  C   UNL     1       2.733  16.393   7.304  1.00  0.00     0.002 A 
ENDBRANCH  27  28
ENDBRANCH   2  22
TORSDOF 5
