REMARK SMILES C=c1[nH]n(-c2ccccc2)c(=O)/c1=C\Nc1ccccc1-c1nnc(SCc2ccccc2)[nH]c1=O
REMARK SMILES IDX 16 1 17 2 18 3 19 4 20 5 21 6 15 7 14 9 1 10 2 11 3 12 13 13
REMARK SMILES IDX 4 14 11 16 12 17 5 18 10 19 6 20 9 21 7 22 8 23 22 24 23 25
REMARK SMILES IDX 35 26 24 27 36 28 34 29 25 30 26 32 27 33 28 34 33 35 29 36
REMARK SMILES IDX 32 37 30 38 31 39
REMARK H PARENT 15 8 3 15 34 31
REMARK Flexibility Score: inf
ROOT
ATOM      1  C   UNL     1       9.713  -3.939   0.727  1.00  0.00     0.048 A 
ATOM      2  C   UNL     1      10.889  -4.614   1.025  1.00  0.00     0.027 A 
ATOM      3  C   UNL     1      11.649  -5.160   0.009  1.00  0.00     0.002 A 
ATOM      4  C   UNL     1      11.243  -5.043  -1.310  1.00  0.00     0.001 A 
ATOM      5  C   UNL     1      10.074  -4.380  -1.622  1.00  0.00     0.013 A 
ATOM      6  C   UNL     1       9.297  -3.824  -0.606  1.00  0.00     0.031 A 
ENDROOT
BRANCH   1   7
ATOM      7  N   UNL     1       8.947  -3.383   1.752  1.00  0.00    -0.360 N 
ATOM      8  H   UNL     1       8.032  -2.959   1.539  1.00  0.00     0.166 HD
BRANCH   7   9
ATOM      9  C   UNL     1       9.408  -3.400   3.035  1.00  0.00     0.099 C 
ATOM     10  C   UNL     1      10.102  -3.256   6.069  1.00  0.00     0.039 C 
ATOM     11  C   UNL     1       8.996  -2.791   5.480  1.00  0.00     0.062 A 
ATOM     12  N   UNL     1       7.925  -2.143   6.098  1.00  0.00    -0.291 N 
ATOM     13  C   UNL     1       8.659  -2.856   4.036  1.00  0.00     0.082 A 
ATOM     14  N   UNL     1       6.961  -1.819   5.143  1.00  0.00    -0.219 N 
ATOM     15  H   UNL     1       7.857  -1.937   7.104  1.00  0.00     0.188 HD
ATOM     16  C   UNL     1       7.342  -2.215   3.916  1.00  0.00     0.280 A 
ATOM     17  O   UNL     1       6.708  -2.068   2.888  1.00  0.00    -0.267 OA
BRANCH  14  18
ATOM     18  C   UNL     1       5.756  -1.167   5.425  1.00  0.00     0.066 A 
ATOM     19  C   UNL     1       5.454  -0.797   6.729  1.00  0.00     0.028 A 
ATOM     20  C   UNL     1       4.863  -0.882   4.401  1.00  0.00     0.028 A 
ATOM     21  C   UNL     1       4.264  -0.152   7.004  1.00  0.00     0.002 A 
ATOM     22  C   UNL     1       3.672  -0.242   4.684  1.00  0.00     0.002 A 
ATOM     23  C   UNL     1       3.374   0.125   5.983  1.00  0.00     0.000 A 
ENDBRANCH  14  18
ENDBRANCH   7   9
ENDBRANCH   1   7
BRANCH   6  24
ATOM     24  C   UNL     1       8.043  -3.111  -0.934  1.00  0.00     0.160 A 
ATOM     25  N   UNL     1       8.069  -1.982  -1.623  1.00  0.00    -0.142 NA
ATOM     26  C   UNL     1       6.745  -3.640  -0.503  1.00  0.00     0.278 A 
ATOM     27  N   UNL     1       6.986  -1.355  -1.913  1.00  0.00    -0.124 NA
ATOM     28  O   UNL     1       6.665  -4.677   0.134  1.00  0.00    -0.267 OA
ATOM     29  N   UNL     1       5.639  -2.933  -0.834  1.00  0.00    -0.298 N 
ATOM     30  C   UNL     1       5.791  -1.784  -1.551  1.00  0.00     0.190 A 
ATOM     31  H   UNL     1       4.703  -3.256  -0.549  1.00  0.00     0.172 HD
BRANCH  30  32
ATOM     32  S   UNL     1       4.366  -0.849  -1.998  1.00  0.00    -0.082 SA
BRANCH  32  33
ATOM     33  C   UNL     1       5.152   0.514  -2.893  1.00  0.00     0.113 C 
BRANCH  33  34
ATOM     34  C   UNL     1       4.094   1.469  -3.384  1.00  0.00    -0.038 A 
ATOM     35  C   UNL     1       3.522   1.287  -4.629  1.00  0.00     0.004 A 
ATOM     36  C   UNL     1       3.695   2.527  -2.588  1.00  0.00     0.004 A 
ATOM     37  C   UNL     1       2.552   2.162  -5.079  1.00  0.00     0.000 A 
ATOM     38  C   UNL     1       2.724   3.402  -3.038  1.00  0.00     0.000 A 
ATOM     39  C   UNL     1       2.153   3.220  -4.283  1.00  0.00     0.000 A 
ENDBRANCH  33  34
ENDBRANCH  32  33
ENDBRANCH  30  32
ENDBRANCH   6  24
TORSDOF 7
