REMARK SMILES Cc1ccc(-n2c(C)cc(/C=C(\C#N)C(=O)O[C@@H](C)C(=O)Nc3sccc3C(N)=O)c2C)cc1
REMARK SMILES IDX 17 1 15 2 16 3 12 4 11 5 10 6 6 7 31 8 7 9 32 10 9 11 8 12
REMARK SMILES IDX 5 13 1 14 2 15 34 16 3 17 33 18 4 19 13 20 14 21 18 22 19 23
REMARK SMILES IDX 20 24 21 25 22 26 23 28 24 29 27 30 25 31 26 32 28 33 30 34
REMARK SMILES IDX 29 35
REMARK H PARENT 22 27 29 36 29 37
REMARK Flexibility Score: inf
ROOT
ATOM      1  O   UNL     1       2.386  -2.799  -0.351  1.00  0.00    -0.448 OA
ENDROOT
BRANCH   1   2
ATOM      2  C   UNL     1       1.214  -2.141  -0.235  1.00  0.00     0.349 C 
ATOM      3  O   UNL     1       0.168  -2.760  -0.229  1.00  0.00    -0.245 OA
BRANCH   2   4
ATOM      4  C   UNL     1       1.203  -0.678  -0.117  1.00  0.00     0.138 C 
ATOM      5  C   UNL     1       0.002  -0.004   0.002  1.00  0.00     0.037 C 
BRANCH   5   6
ATOM      6  C   UNL     1      -0.006   1.389   0.262  1.00  0.00    -0.003 A 
ATOM      7  N   UNL     1      -0.654   3.496   0.452  1.00  0.00    -0.318 N 
ATOM      8  C   UNL     1      -1.065   2.266   0.086  1.00  0.00     0.027 A 
ATOM      9  C   UNL     1       0.652   3.462   0.858  1.00  0.00     0.020 A 
ATOM     10  C   UNL     1      -2.436   1.905  -0.423  1.00  0.00     0.065 C 
ATOM     11  C   UNL     1       1.110   2.203   0.766  1.00  0.00     0.031 A 
ATOM     12  C   UNL     1       1.449   4.649   1.333  1.00  0.00     0.065 C 
BRANCH   7  13
ATOM     13  C   UNL     1      -1.451   4.648   0.417  1.00  0.00     0.045 A 
ATOM     14  C   UNL     1      -3.880   8.163   0.308  1.00  0.00     0.044 C 
ATOM     15  C   UNL     1      -3.023   6.924   0.347  1.00  0.00    -0.051 A 
ATOM     16  C   UNL     1      -3.342   5.891   1.209  1.00  0.00     0.005 A 
ATOM     17  C   UNL     1      -1.920   6.822  -0.481  1.00  0.00     0.005 A 
ATOM     18  C   UNL     1      -2.562   4.752   1.243  1.00  0.00     0.027 A 
ATOM     19  C   UNL     1      -1.133   5.687  -0.449  1.00  0.00     0.027 A 
ENDBRANCH   7  13
ENDBRANCH   5   6
BRANCH   4  20
ATOM     20  C   UNL     1       2.435   0.051  -0.124  1.00  0.00     0.107 C 
ATOM     21  N   UNL     1       3.413   0.629  -0.130  1.00  0.00    -0.192 NA
ENDBRANCH   4  20
ENDBRANCH   2   4
ENDBRANCH   1   2
BRANCH   1  22
ATOM     22  C   UNL     1       2.321  -4.245  -0.465  1.00  0.00     0.262 C 
ATOM     23  C   UNL     1       2.222  -4.637  -1.940  1.00  0.00     0.064 C 
BRANCH  22  24
ATOM     24  C   UNL     1       3.565  -4.852   0.134  1.00  0.00     0.265 C 
ATOM     25  O   UNL     1       4.421  -4.136   0.608  1.00  0.00    -0.270 OA
ATOM     26  N   UNL     1       3.725  -6.190   0.141  1.00  0.00    -0.314 N 
ATOM     27  H   UNL     1       2.998  -6.798  -0.263  1.00  0.00     0.170 HD
BRANCH  26  28
ATOM     28  C   UNL     1       4.869  -6.748   0.691  1.00  0.00     0.108 A 
ATOM     29  S   UNL     1       6.216  -5.940   1.421  1.00  0.00    -0.126 S 
ATOM     30  C   UNL     1       5.210  -8.091   0.796  1.00  0.00     0.074 A 
ATOM     31  C   UNL     1       7.213  -7.353   1.849  1.00  0.00     0.068 A 
ATOM     32  C   UNL     1       6.477  -8.393   1.417  1.00  0.00     0.028 A 
BRANCH  30  33
ATOM     33  C   UNL     1       4.327  -9.150   0.296  1.00  0.00     0.251 C 
ATOM     34  O   UNL     1       3.266  -8.861  -0.226  1.00  0.00    -0.269 OA
ATOM     35  N   UNL     1       4.690 -10.442   0.415  1.00  0.00    -0.366 N 
ATOM     36  H   UNL     1       5.588 -10.686   0.857  1.00  0.00     0.159 HD
ATOM     37  H   UNL     1       4.070 -11.186   0.064  1.00  0.00     0.159 HD
ENDBRANCH  30  33
ENDBRANCH  26  28
ENDBRANCH  22  24
ENDBRANCH   1  22
TORSDOF 9
