REMARK SMILES C[C@H]([NH2+][C@@H](c1ccccc1)c1ccc(OC(F)F)cc1)C(=O)Nc1sc2c(c1C(N)=O)CCC2
REMARK SMILES IDX 3 1 2 4 1 5 21 6 22 7 23 8 24 10 25 11 28 12 26 13 27 14
REMARK SMILES IDX 34 15 32 16 33 17 29 18 31 19 30 20 4 23 5 24 10 25 6 26
REMARK SMILES IDX 9 27 7 28 8 29 11 30 20 31 12 32 19 33 13 34 14 35 15 36
REMARK SMILES IDX 16 37 17 38 18 39
REMARK H PARENT 3 2 3 3 23 9 30 21 30 22
REMARK Flexibility Score: inf
ROOT
ATOM      1  N   UNL     1      -0.015   0.998   0.015  1.00  0.00    -0.326 N 
ATOM      2  H   UNL     1      -0.478   1.258   0.897  1.00  0.00     0.347 HD
ATOM      3  H   UNL     1       0.030  -0.029  -0.052  1.00  0.00     0.347 HD
ENDROOT
BRANCH   1   4
ATOM      4  C   UNL     1       1.353   1.550  -0.003  1.00  0.00     0.270 C 
ATOM      5  C   UNL     1       1.365   2.907   0.703  1.00  0.00     0.086 C 
BRANCH   4   6
ATOM      6  C   UNL     1       2.277   0.602   0.716  1.00  0.00     0.282 C 
ATOM      7  O   UNL     1       1.843  -0.426   1.190  1.00  0.00    -0.268 OA
ATOM      8  N   UNL     1       3.587   0.897   0.832  1.00  0.00    -0.312 N 
ATOM      9  H   UNL     1       3.956   1.770   0.430  1.00  0.00     0.171 HD
BRANCH   8  10
ATOM     10  C   UNL     1       4.439   0.025   1.494  1.00  0.00     0.109 A 
ATOM     11  S   UNL     1       4.058  -1.487   2.245  1.00  0.00    -0.122 S 
ATOM     12  C   UNL     1       5.801   0.149   1.709  1.00  0.00     0.077 A 
ATOM     13  C   UNL     1       5.673  -1.933   2.835  1.00  0.00     0.011 A 
ATOM     14  C   UNL     1       6.470  -0.921   2.447  1.00  0.00    -0.019 A 
ATOM     15  C   UNL     1       6.432  -2.994   3.584  1.00  0.00     0.047 C 
ATOM     16  C   UNL     1       7.895  -1.222   2.913  1.00  0.00     0.038 C 
ATOM     17  C   UNL     1       7.754  -2.309   3.997  1.00  0.00     0.010 C 
BRANCH  12  18
ATOM     18  C   UNL     1       6.544   1.313   1.217  1.00  0.00     0.251 C 
ATOM     19  O   UNL     1       6.664   2.300   1.920  1.00  0.00    -0.269 OA
ATOM     20  N   UNL     1       7.095   1.291  -0.013  1.00  0.00    -0.365 N 
ATOM     21  H   UNL     1       6.993   0.457  -0.608  1.00  0.00     0.159 HD
ATOM     22  H   UNL     1       7.617   2.109  -0.358  1.00  0.00     0.159 HD
ENDBRANCH  12  18
ENDBRANCH   8  10
ENDBRANCH   4   6
ENDBRANCH   1   4
BRANCH   1  23
ATOM     23  C   UNL     1      -0.795   1.527  -1.120  1.00  0.00     0.245 C 
BRANCH  23  24
ATOM     24  C   UNL     1      -0.538   0.685  -2.343  1.00  0.00     0.014 A 
ATOM     25  C   UNL     1      -0.409   1.287  -3.581  1.00  0.00     0.010 A 
ATOM     26  C   UNL     1      -0.425  -0.687  -2.227  1.00  0.00     0.010 A 
ATOM     27  C   UNL     1      -0.172   0.515  -4.703  1.00  0.00     0.001 A 
ATOM     28  C   UNL     1      -0.193  -1.459  -3.349  1.00  0.00     0.001 A 
ATOM     29  C   UNL     1      -0.064  -0.858  -4.588  1.00  0.00     0.000 A 
ENDBRANCH  23  24
BRANCH  23  30
ATOM     30  C   UNL     1      -2.262   1.479  -0.777  1.00  0.00     0.014 A 
ATOM     31  C   UNL     1      -3.091   2.522  -1.144  1.00  0.00     0.014 A 
ATOM     32  C   UNL     1      -2.777   0.388  -0.100  1.00  0.00     0.014 A 
ATOM     33  C   UNL     1      -4.436   2.480  -0.832  1.00  0.00     0.047 A 
ATOM     34  C   UNL     1      -4.120   0.344   0.220  1.00  0.00     0.047 A 
ATOM     35  C   UNL     1      -4.955   1.390  -0.148  1.00  0.00     0.126 A 
BRANCH  35  36
ATOM     36  O   UNL     1      -6.277   1.346   0.161  1.00  0.00    -0.435 OA
BRANCH  36  37
ATOM     37  C   UNL     1      -6.741   0.193   0.866  1.00  0.00     0.542 C 
ATOM     38  F   UNL     1      -6.496  -0.952   0.100  1.00  0.00    -0.167 F 
ATOM     39  F   UNL     1      -6.067   0.090   2.087  1.00  0.00    -0.167 F 
ENDBRANCH  36  37
ENDBRANCH  35  36
ENDBRANCH  23  30
ENDBRANCH   1  23
TORSDOF 9
