REMARK SMILES N#Cc1c(NC(=O)C(=O)N/N=C/c2ccccc2OCc2ccccc2)sc2c1CCCC2
REMARK SMILES IDX 12 1 11 2 13 3 18 4 17 5 14 6 16 7 15 8 19 9 20 10 21 11
REMARK SMILES IDX 24 12 25 13 23 14 26 15 22 16 10 17 8 18 9 20 6 21 7 22 5 23
REMARK SMILES IDX 4 25 27 26 3 27 28 28 29 29 33 30 30 31 32 32 31 33 2 34
REMARK SMILES IDX 1 35
REMARK H PARENT 10 19 5 24
REMARK Flexibility Score: inf
ROOT
ATOM      1  C   UNL     1      -3.639  10.547  -6.105  1.00  0.00     0.145 C 
ATOM      2  N   UNL     1      -3.332  10.266  -4.874  1.00  0.00    -0.180 NA
ENDROOT
BRANCH   1   3
ATOM      3  C   UNL     1      -4.005  11.924  -6.476  1.00  0.00     0.037 A 
ATOM      4  C   UNL     1      -4.024  12.935  -5.505  1.00  0.00     0.128 A 
ATOM      5  C   UNL     1      -4.370  14.228  -5.866  1.00  0.00     0.047 A 
ATOM      6  C   UNL     1      -4.331  12.232  -7.800  1.00  0.00     0.013 A 
ATOM      7  C   UNL     1      -4.695  14.518  -7.177  1.00  0.00     0.004 A 
ATOM      8  C   UNL     1      -4.677  13.523  -8.140  1.00  0.00     0.001 A 
BRANCH   4   9
ATOM      9  O   UNL     1      -3.705  12.649  -4.217  1.00  0.00    -0.488 OA
BRANCH   9  10
ATOM     10  C   UNL     1      -3.747  13.730  -3.283  1.00  0.00     0.265 C 
BRANCH  10  11
ATOM     11  C   UNL     1      -3.366  13.226  -1.914  1.00  0.00    -0.011 A 
ATOM     12  C   UNL     1      -2.667  12.302   0.596  1.00  0.00     0.000 A 
ATOM     13  C   UNL     1      -3.992  12.290   0.199  1.00  0.00     0.000 A 
ATOM     14  C   UNL     1      -1.693  12.776  -0.262  1.00  0.00     0.000 A 
ATOM     15  C   UNL     1      -4.341  12.757  -1.054  1.00  0.00     0.007 A 
ATOM     16  C   UNL     1      -2.042  13.238  -1.517  1.00  0.00     0.007 A 
ENDBRANCH  10  11
ENDBRANCH   9  10
ENDBRANCH   4   9
ENDBRANCH   1   3
BRANCH   2  17
ATOM     17  N   UNL     1      -2.984   8.956  -4.521  1.00  0.00    -0.239 N 
ATOM     18  C   UNL     1      -2.665   8.664  -3.244  1.00  0.00     0.329 C 
ATOM     19  H   UNL     1      -2.971   8.215  -5.237  1.00  0.00     0.194 HD
ATOM     20  O   UNL     1      -2.680   9.537  -2.400  1.00  0.00    -0.262 OA
BRANCH  18  21
ATOM     21  C   UNL     1      -2.295   7.271  -2.868  1.00  0.00     0.316 C 
ATOM     22  O   UNL     1      -2.280   6.398  -3.712  1.00  0.00    -0.263 OA
ATOM     23  N   UNL     1      -1.976   6.979  -1.591  1.00  0.00    -0.308 N 
ATOM     24  H   UNL     1      -1.989   7.720  -0.875  1.00  0.00     0.171 HD
BRANCH  23  25
ATOM     25  C   UNL     1      -1.632   5.684  -1.242  1.00  0.00     0.114 A 
ATOM     26  S   UNL     1      -1.532   4.234  -2.277  1.00  0.00    -0.121 S 
ATOM     27  C   UNL     1      -1.275   5.182   0.004  1.00  0.00     0.090 A 
ATOM     28  C   UNL     1      -1.036   3.058  -1.048  1.00  0.00     0.011 A 
ATOM     29  C   UNL     1      -0.956   3.769   0.100  1.00  0.00    -0.014 A 
ATOM     30  C   UNL     1      -0.762   1.598  -1.231  1.00  0.00     0.047 C 
ATOM     31  C   UNL     1      -0.551   3.093   1.407  1.00  0.00     0.038 C 
ATOM     32  C   UNL     1      -0.013   1.086   0.008  1.00  0.00     0.006 C 
ATOM     33  C   UNL     1      -0.736   1.583   1.263  1.00  0.00     0.005 C 
BRANCH  27  34
ATOM     34  C   UNL     1      -1.224   6.032   1.156  1.00  0.00     0.103 C 
ATOM     35  N   UNL     1      -1.184   6.706   2.070  1.00  0.00    -0.192 NA
ENDBRANCH  27  34
ENDBRANCH  23  25
ENDBRANCH  18  21
ENDBRANCH   2  17
TORSDOF 8
