REMARK SMILES CC(C)(C)OC(=O)N1CC2=C(OC(N)=C(C#N)[C@H]2c2ccc(Cl)cc2)/C(=C/c2ccc(Cl)cc2)C1
REMARK SMILES IDX 6 1 7 2 5 3 2 4 1 5 3 6 4 7 8 8 9 9 35 10 10 11 26 12 11 13
REMARK SMILES IDX 18 14 27 15 12 16 15 17 13 18 19 19 25 20 20 21 24 22 21 23
REMARK SMILES IDX 22 24 23 25 28 26 34 27 29 28 33 29 30 30 31 31 32 32 16 33
REMARK SMILES IDX 17 34 14 35
REMARK H PARENT 14 36 14 37
REMARK Flexibility Score: inf
ROOT
ATOM      1  C   UNL     1      -0.515  -0.845  -1.433  1.00  0.00     0.410 C 
ATOM      2  O   UNL     1      -1.159  -0.278  -2.293  1.00  0.00    -0.224 OA
ENDROOT
BRANCH   1   3
ATOM      3  O   UNL     1      -0.419  -2.188  -1.440  1.00  0.00    -0.444 OA
BRANCH   3   4
ATOM      4  C   UNL     1      -1.110  -2.893  -2.505  1.00  0.00     0.106 C 
ATOM      5  C   UNL     1      -0.562  -2.435  -3.858  1.00  0.00     0.056 C 
ATOM      6  C   UNL     1      -0.887  -4.399  -2.348  1.00  0.00     0.056 C 
ATOM      7  C   UNL     1      -2.607  -2.588  -2.431  1.00  0.00     0.056 C 
ENDBRANCH   3   4
ENDBRANCH   1   3
BRANCH   1   8
ATOM      8  N   UNL     1       0.102  -0.131  -0.471  1.00  0.00    -0.300 N 
ATOM      9  C   UNL     1       0.015   1.331  -0.439  1.00  0.00     0.159 C 
ATOM     10  C   UNL     1       0.890  -0.793   0.586  1.00  0.00     0.163 C 
ATOM     11  C   UNL     1       1.376   1.948  -0.232  1.00  0.00     0.005 C 
ATOM     12  C   UNL     1       2.280  -0.200   0.510  1.00  0.00     0.015 C 
ATOM     13  C   UNL     1       2.413   1.240   0.213  1.00  0.00     0.136 C 
ATOM     14  C   UNL     1       1.533   3.418  -0.546  1.00  0.00     0.097 C 
ATOM     15  C   UNL     1       3.368  -0.966   0.707  1.00  0.00     0.017 C 
ATOM     16  O   UNL     1       3.630   1.813   0.409  1.00  0.00    -0.440 OA
ATOM     17  C   UNL     1       2.754   3.972   0.131  1.00  0.00     0.101 C 
ATOM     18  C   UNL     1       3.733   3.142   0.572  1.00  0.00     0.205 C 
BRANCH  14  19
ATOM     19  C   UNL     1       1.668   3.593  -2.037  1.00  0.00    -0.035 A 
ATOM     20  C   UNL     1       0.738   4.342  -2.732  1.00  0.00     0.006 A 
ATOM     21  C   UNL     1       2.726   3.008  -2.708  1.00  0.00     0.006 A 
ATOM     22  C   UNL     1       0.861   4.503  -4.099  1.00  0.00     0.021 A 
ATOM     23  C   UNL     1       2.847   3.163  -4.077  1.00  0.00     0.021 A 
ATOM     24  C   UNL     1       1.916   3.913  -4.772  1.00  0.00     0.041 A 
ATOM     25  Cl  UNL     1       2.071   4.114  -6.490  1.00  0.00    -0.084 Cl
ENDBRANCH  14  19
BRANCH  15  26
ATOM     26  C   UNL     1       3.215  -2.358   1.163  1.00  0.00    -0.025 A 
ATOM     27  C   UNL     1       4.128  -3.335   0.754  1.00  0.00     0.009 A 
ATOM     28  C   UNL     1       2.160  -2.708   2.010  1.00  0.00     0.009 A 
ATOM     29  C   UNL     1       3.979  -4.637   1.184  1.00  0.00     0.021 A 
ATOM     30  C   UNL     1       2.020  -4.014   2.429  1.00  0.00     0.021 A 
ATOM     31  C   UNL     1       2.928  -4.977   2.020  1.00  0.00     0.041 A 
ATOM     32  Cl  UNL     1       2.748  -6.618   2.556  1.00  0.00    -0.084 Cl
ENDBRANCH  15  26
BRANCH  17  33
ATOM     33  C   UNL     1       2.886   5.386   0.313  1.00  0.00     0.101 C 
ATOM     34  N   UNL     1       2.991   6.508   0.457  1.00  0.00    -0.193 NA
ENDBRANCH  17  33
BRANCH  18  35
ATOM     35  N   UNL     1       4.840   3.667   1.190  1.00  0.00    -0.369 N 
ATOM     36  H   UNL     1       4.929   4.684   1.319  1.00  0.00     0.159 HD
ATOM     37  H   UNL     1       5.585   3.039   1.526  1.00  0.00     0.159 HD
ENDBRANCH  18  35
ENDBRANCH   1   8
TORSDOF 7
