REMARK SMILES Cc1ccc(C(C)C)c(OCC(=O)/N=N/c2c([O-])[nH]c3ccc(C(C)C)cc23)c1
REMARK SMILES IDX 11 1 10 2 9 3 1 4 2 5 29 6 3 7 4 8 5 9 6 10 7 11 8 12 12 13
REMARK SMILES IDX 13 14 14 15 15 16 16 17 17 18 28 19 19 20 18 21 20 22 27 23
REMARK SMILES IDX 21 25 23 26 22 27 24 28 25 29 26 30
REMARK H PARENT 19 24
REMARK Flexibility Score: inf
ROOT
ATOM      1  C   UNL     1       3.388   5.758   8.363  1.00  0.00     0.333 C 
ENDROOT
BRANCH   1   2
ATOM      2  O   UNL     1       3.367   7.186   8.367  1.00  0.00    -0.483 OA
BRANCH   2   3
ATOM      3  C   UNL     1       3.973   7.810   9.412  1.00  0.00     0.123 A 
ATOM      4  C   UNL     1       5.845   6.885  12.562  1.00  0.00     0.044 C 
ATOM      5  C   UNL     1       5.191   7.697  11.474  1.00  0.00    -0.047 A 
ATOM      6  C   UNL     1       4.571   7.061  10.416  1.00  0.00     0.050 A 
ATOM      7  C   UNL     1       5.206   9.078  11.538  1.00  0.00     0.004 A 
ATOM      8  C   UNL     1       4.607   9.826  10.542  1.00  0.00     0.008 A 
ATOM      9  C   UNL     1       3.990   9.195   9.479  1.00  0.00    -0.003 A 
BRANCH   9  10
ATOM     10  C   UNL     1       3.337  10.011   8.394  1.00  0.00     0.017 C 
ATOM     11  C   UNL     1       2.230  10.876   9.001  1.00  0.00     0.012 C 
ATOM     12  C   UNL     1       4.383  10.911   7.733  1.00  0.00     0.012 C 
ENDBRANCH   9  10
ENDBRANCH   2   3
ENDBRANCH   1   2
BRANCH   1  13
ATOM     13  C   UNL     1       2.674   5.248   7.138  1.00  0.00     0.302 C 
ATOM     14  O   UNL     1       2.193   6.032   6.345  1.00  0.00    -0.267 OA
BRANCH  13  15
ATOM     15  N   UNL     1       2.569   3.929   6.924  1.00  0.00    -0.107 NA
ATOM     16  N   UNL     1       1.958   3.493   5.875  1.00  0.00    -0.146 NA
BRANCH  16  17
ATOM     17  C   UNL     1       1.854   2.180   5.661  1.00  0.00     0.104 A 
ATOM     18  C   UNL     1       2.350   1.152   6.474  1.00  0.00    -0.011 A 
ATOM     19  C   UNL     1       1.192   1.515   4.520  1.00  0.00     0.027 A 
ATOM     20  N   UNL     1       2.040  -0.042   5.916  1.00  0.00    -0.366 N 
ATOM     21  O   UNL     1       3.028   1.324   7.627  1.00  0.00    -0.859 OA
ATOM     22  C   UNL     1       1.340   0.137   4.734  1.00  0.00     0.047 A 
ATOM     23  C   UNL     1       0.520   1.980   3.394  1.00  0.00     0.016 A 
ATOM     24  H   UNL     1       2.291  -0.958   6.315  1.00  0.00     0.165 HD
ATOM     25  C   UNL     1       0.810  -0.755   3.809  1.00  0.00     0.027 A 
ATOM     26  C   UNL     1       0.000   1.080   2.488  1.00  0.00    -0.045 A 
ATOM     27  C   UNL     1       0.141  -0.282   2.699  1.00  0.00     0.006 A 
BRANCH  26  28
ATOM     28  C   UNL     1      -0.729   1.579   1.267  1.00  0.00     0.013 C 
ATOM     29  C   UNL     1      -0.013   1.086   0.008  1.00  0.00     0.012 C 
ATOM     30  C   UNL     1      -2.164   1.050   1.278  1.00  0.00     0.012 C 
ENDBRANCH  26  28
ENDBRANCH  16  17
ENDBRANCH  13  15
ENDBRANCH   1  13
TORSDOF 7
