REMARK SMILES CC(C)OC(=O)c1c(NC(=O)[C@H](C)Sc2nnc(C3CC3)n2C2CC2)sc2c1CC[C@@H](C)C2
REMARK SMILES IDX 9 1 10 2 11 3 8 5 32 6 31 7 33 8 30 9 27 10 29 11 28 12
REMARK SMILES IDX 26 13 7 14 5 15 6 16 4 17 2 18 1 19 3 20 12 21 13 22 14 23
REMARK SMILES IDX 15 24 22 25 16 26 18 27 17 28 23 29 25 30 24 31 19 32 21 33
REMARK SMILES IDX 20 34
REMARK H PARENT 9 4
REMARK Flexibility Score: inf
ROOT
ATOM      1  N   UNL     1      -1.721   0.425   2.530  1.00  0.00    -0.316 N 
ATOM      2  C   UNL     1      -2.430  -0.202   3.489  1.00  0.00     0.238 C 
ATOM      3  O   UNL     1      -3.499  -0.707   3.220  1.00  0.00    -0.273 OA
ATOM      4  H   UNL     1      -0.812   0.854   2.758  1.00  0.00     0.170 HD
ENDROOT
BRANCH   1   5
ATOM      5  C   UNL     1      -2.214   0.494   1.236  1.00  0.00     0.110 A 
ATOM      6  C   UNL     1      -4.899   0.672  -4.614  1.00  0.00     0.008 C 
ATOM      7  C   UNL     1      -4.140   1.084  -3.351  1.00  0.00    -0.009 C 
ATOM      8  C   UNL     1      -4.515   0.145  -2.195  1.00  0.00     0.050 C 
ATOM      9  C   UNL     1      -2.632   0.983  -3.599  1.00  0.00     0.008 C 
ATOM     10  C   UNL     1      -3.551   0.372  -1.071  1.00  0.00     0.011 A 
ATOM     11  C   UNL     1      -1.870   1.625  -2.438  1.00  0.00     0.038 C 
ATOM     12  C   UNL     1      -2.372   1.026  -1.130  1.00  0.00    -0.017 A 
ATOM     13  S   UNL     1      -3.701  -0.144   0.616  1.00  0.00    -0.122 S 
ATOM     14  C   UNL     1      -1.637   1.091   0.123  1.00  0.00     0.098 A 
BRANCH  14  15
ATOM     15  C   UNL     1      -0.341   1.766   0.209  1.00  0.00     0.341 C 
ATOM     16  O   UNL     1       0.684   1.141   0.012  1.00  0.00    -0.246 OA
BRANCH  15  17
ATOM     17  O   UNL     1      -0.282   3.080   0.508  1.00  0.00    -0.459 OA
BRANCH  17  18
ATOM     18  C   UNL     1       1.037   3.683   0.577  1.00  0.00     0.170 C 
ATOM     19  C   UNL     1       1.426   4.217  -0.803  1.00  0.00     0.052 C 
ATOM     20  C   UNL     1       1.019   4.835   1.583  1.00  0.00     0.052 C 
ENDBRANCH  17  18
ENDBRANCH  15  17
ENDBRANCH  14  15
ENDBRANCH   1   5
BRANCH   2  21
ATOM     21  C   UNL     1      -1.893  -0.277   4.895  1.00  0.00     0.141 C 
ATOM     22  C   UNL     1      -0.853  -1.396   4.985  1.00  0.00     0.030 C 
BRANCH  21  23
ATOM     23  S   UNL     1      -3.251  -0.622   6.041  1.00  0.00    -0.073 SA
BRANCH  23  24
ATOM     24  C   UNL     1      -2.392  -0.507   7.576  1.00  0.00     0.192 A 
ATOM     25  N   UNL     1      -2.928  -0.673   8.820  1.00  0.00    -0.303 N 
ATOM     26  N   UNL     1      -1.117  -0.239   7.739  1.00  0.00    -0.123 NA
ATOM     27  C   UNL     1      -1.893  -0.496   9.696  1.00  0.00     0.137 A 
ATOM     28  N   UNL     1      -0.829  -0.234   8.991  1.00  0.00    -0.134 NA
BRANCH  25  29
ATOM     29  C   UNL     1      -4.322  -0.982   9.149  1.00  0.00     0.091 C 
ATOM     30  C   UNL     1      -5.406  -0.093   8.536  1.00  0.00     0.028 C 
ATOM     31  C   UNL     1      -5.210  -1.523   8.026  1.00  0.00     0.028 C 
ENDBRANCH  25  29
BRANCH  27  32
ATOM     32  C   UNL     1      -1.970  -0.581  11.199  1.00  0.00     0.058 C 
ATOM     33  C   UNL     1      -1.095  -1.627  11.893  1.00  0.00     0.012 C 
ATOM     34  C   UNL     1      -0.740  -0.141  11.995  1.00  0.00     0.012 C 
ENDBRANCH  27  32
ENDBRANCH  23  24
ENDBRANCH  21  23
ENDBRANCH   2  21
TORSDOF 9
