REMARK SMILES COc1ccc(Cn2cnc(N)c3nc(C(C)(C)OCc4cccc(F)c4)nc2-3)cc1OC1CCCC1
REMARK SMILES IDX 15 1 14 2 13 3 11 4 10 5 9 6 8 7 29 8 28 9 16 10 17 11 18 12
REMARK SMILES IDX 19 13 20 14 21 15 27 16 22 17 25 18 23 19 24 20 26 21 7 22
REMARK SMILES IDX 6 23 30 24 5 25 31 26 4 27 3 28 32 29 33 30 37 31 34 32
REMARK SMILES IDX 36 33 35 34 2 35 1 36 12 37
REMARK H PARENT 12 38 12 39
REMARK Flexibility Score: inf
ROOT
ATOM      1  C   UNL     1       0.316   2.027  -0.710  1.00  0.00     0.163 A 
ATOM      2  N   UNL     1       0.258   0.724  -0.887  1.00  0.00    -0.223 NA
ATOM      3  C   UNL     1       1.505   0.233  -0.799  1.00  0.00     0.150 A 
ATOM      4  C   UNL     1       2.084  -1.044  -0.895  1.00  0.00     0.155 A 
ATOM      5  N   UNL     1       3.406  -1.172  -0.750  1.00  0.00    -0.219 NA
ATOM      6  C   UNL     1       4.181  -0.142  -0.522  1.00  0.00     0.203 A 
ATOM      7  N   UNL     1       3.702   1.108  -0.417  1.00  0.00    -0.311 N 
ATOM      8  C   UNL     1       2.352   1.337  -0.552  1.00  0.00     0.166 A 
ATOM      9  N   UNL     1       1.572   2.406  -0.507  1.00  0.00    -0.210 NA
ENDROOT
BRANCH   1  10
ATOM     10  C   UNL     1      -0.872   2.954  -0.739  1.00  0.00     0.122 C 
ATOM     11  C   UNL     1      -2.144   2.146  -1.005  1.00  0.00     0.051 C 
ATOM     12  C   UNL     1      -0.994   3.670   0.608  1.00  0.00     0.051 C 
BRANCH  10  13
ATOM     13  O   UNL     1      -0.696   3.920  -1.777  1.00  0.00    -0.363 OA
BRANCH  13  14
ATOM     14  C   UNL     1      -1.772   4.854  -1.891  1.00  0.00     0.197 C 
BRANCH  14  15
ATOM     15  C   UNL     1      -1.482   5.820  -3.011  1.00  0.00    -0.019 A 
ATOM     16  C   UNL     1      -1.900   5.533  -4.296  1.00  0.00     0.045 A 
ATOM     17  C   UNL     1      -0.803   6.996  -2.750  1.00  0.00     0.006 A 
ATOM     18  C   UNL     1      -1.634   6.422  -5.325  1.00  0.00     0.123 A 
ATOM     19  C   UNL     1      -0.532   7.881  -3.777  1.00  0.00     0.003 A 
ATOM     20  C   UNL     1      -0.950   7.596  -5.064  1.00  0.00     0.039 A 
ATOM     21  F   UNL     1      -2.043   6.143  -6.582  1.00  0.00    -0.207 F 
ENDBRANCH  14  15
ENDBRANCH  13  14
ENDBRANCH  10  13
ENDBRANCH   1  10
BRANCH   7  22
ATOM     22  C   UNL     1       4.614   2.225  -0.160  1.00  0.00     0.161 C 
BRANCH  22  23
ATOM     23  C   UNL     1       4.662   2.505   1.321  1.00  0.00    -0.024 A 
ATOM     24  C   UNL     1       3.777   3.407   1.881  1.00  0.00     0.056 A 
ATOM     25  C   UNL     1       5.593   1.862   2.114  1.00  0.00     0.009 A 
ATOM     26  C   UNL     1       3.816   3.661   3.242  1.00  0.00     0.161 A 
ATOM     27  C   UNL     1       5.641   2.115   3.473  1.00  0.00     0.051 A 
ATOM     28  C   UNL     1       4.753   3.014   4.041  1.00  0.00     0.160 A 
BRANCH  26  29
ATOM     29  O   UNL     1       2.942   4.545   3.796  1.00  0.00    -0.487 OA
BRANCH  29  30
ATOM     30  C   UNL     1       1.933   5.083   2.939  1.00  0.00     0.173 C 
ATOM     31  C   UNL     1       0.732   5.559   3.774  1.00  0.00     0.045 C 
ATOM     32  C   UNL     1       2.475   6.323   2.198  1.00  0.00     0.045 C 
ATOM     33  C   UNL     1       0.585   7.072   3.512  1.00  0.00     0.004 C 
ATOM     34  C   UNL     1       1.264   7.288   2.137  1.00  0.00     0.004 C 
ENDBRANCH  29  30
ENDBRANCH  26  29
BRANCH  28  35
ATOM     35  O   UNL     1       4.798   3.264   5.377  1.00  0.00    -0.493 OA
ATOM     36  C   UNL     1       5.787   2.563   6.135  1.00  0.00     0.278 C 
ENDBRANCH  28  35
ENDBRANCH  22  23
ENDBRANCH   7  22
BRANCH   4  37
ATOM     37  N   UNL     1       1.301  -2.146  -1.134  1.00  0.00    -0.382 N 
ATOM     38  H   UNL     1       0.283  -2.034  -1.242  1.00  0.00     0.158 HD
ATOM     39  H   UNL     1       1.729  -3.080  -1.204  1.00  0.00     0.158 HD
ENDBRANCH   4  37
TORSDOF 10
