REMARK SMILES CC(C)(C)c1cc2cc(NC3CCN(Cc4nc5ccccc5[nH]4)CC3)ccc2[nH]1
REMARK SMILES IDX 11 1 12 2 13 3 14 4 25 5 26 6 10 7 9 9 5 10 30 11 6 12 29 13
REMARK SMILES IDX 7 15 28 16 8 17 27 18 2 19 1 20 3 21 4 22 15 23 16 24 17 25
REMARK SMILES IDX 24 26 18 27 23 28 19 30 22 31 20 32 21 33
REMARK H PARENT 10 8 30 14 24 29
REMARK Flexibility Score: inf
ROOT
ATOM      1  C   UNL     1       6.049  -2.239  -0.071  1.00  0.00     0.081 C 
ATOM      2  C   UNL     1       6.156  -2.765   1.363  1.00  0.00     0.040 C 
ATOM      3  C   UNL     1       6.824  -4.142   1.347  1.00  0.00     0.087 C 
ATOM      4  N   UNL     1       8.159  -4.034   0.744  1.00  0.00    -0.296 NA
ATOM      5  C   UNL     1       8.077  -3.576  -0.649  1.00  0.00     0.087 C 
ATOM      6  C   UNL     1       7.447  -2.182  -0.693  1.00  0.00     0.040 C 
ENDROOT
BRANCH   1   7
ATOM      7  N   UNL     1       5.464  -0.896  -0.058  1.00  0.00    -0.382 N 
ATOM      8  H   UNL     1       6.076  -0.068  -0.059  1.00  0.00     0.160 HD
BRANCH   7   9
ATOM      9  C   UNL     1       4.074  -0.738  -0.042  1.00  0.00     0.035 A 
ATOM     10  C   UNL     1      -0.017   1.364   0.009  1.00  0.00     0.021 A 
ATOM     11  N   UNL     1       0.002  -0.004   0.002  1.00  0.00    -0.358 N 
ATOM     12  C   UNL     1       1.239   1.839   0.000  1.00  0.00     0.032 A 
ATOM     13  C   UNL     1       1.306  -0.455  -0.013  1.00  0.00     0.046 A 
ATOM     14  H   UNL     1      -0.833  -0.607   0.007  1.00  0.00     0.166 HD
ATOM     15  C   UNL     1       2.136   0.680  -0.015  1.00  0.00     0.002 A 
ATOM     16  C   UNL     1       1.877  -1.723  -0.025  1.00  0.00     0.029 A 
ATOM     17  C   UNL     1       3.524   0.530  -0.030  1.00  0.00     0.036 A 
ATOM     18  C   UNL     1       3.247  -1.861  -0.040  1.00  0.00     0.028 A 
BRANCH  10  19
ATOM     19  C   UNL     1      -1.262   2.212   0.020  1.00  0.00     0.002 C 
ATOM     20  C   UNL     1      -2.492   1.311   0.148  1.00  0.00     0.017 C 
ATOM     21  C   UNL     1      -1.212   3.177   1.207  1.00  0.00     0.017 C 
ATOM     22  C   UNL     1      -1.347   3.010  -1.283  1.00  0.00     0.017 C 
ENDBRANCH  10  19
ENDBRANCH   7   9
ENDBRANCH   1   7
BRANCH   4  23
ATOM     23  C   UNL     1       8.883  -5.309   0.838  1.00  0.00     0.159 C 
BRANCH  23  24
ATOM     24  C   UNL     1       9.162  -5.623   2.285  1.00  0.00     0.121 A 
ATOM     25  N   UNL     1      10.184  -5.184   2.959  1.00  0.00    -0.232 NA
ATOM     26  N   UNL     1       8.385  -6.412   3.075  1.00  0.00    -0.341 N 
ATOM     27  C   UNL     1      10.128  -5.655   4.232  1.00  0.00     0.089 A 
ATOM     28  C   UNL     1       8.975  -6.452   4.322  1.00  0.00     0.066 A 
ATOM     29  H   UNL     1       7.517  -6.891   2.794  1.00  0.00     0.168 HD
ATOM     30  C   UNL     1      10.947  -5.500   5.354  1.00  0.00     0.030 A 
ATOM     31  C   UNL     1       8.659  -7.076   5.522  1.00  0.00     0.028 A 
ATOM     32  C   UNL     1      10.620  -6.122   6.525  1.00  0.00     0.002 A 
ATOM     33  C   UNL     1       9.481  -6.909   6.615  1.00  0.00     0.002 A 
ENDBRANCH  23  24
ENDBRANCH   4  23
TORSDOF 5
