REMARK SMILES CNS(=O)(=O)Cc1ccc(CNc2nc(-c3ccccc3)nc3sc(C)c(C)c23)cc1
REMARK SMILES IDX 10 1 9 2 8 3 7 4 31 5 30 6 11 7 12 8 13 10 28 11 27 12 29 13
REMARK SMILES IDX 25 14 23 15 24 16 26 17 22 18 14 19 15 20 16 21 21 22 17 23
REMARK SMILES IDX 20 24 18 25 19 26 6 27 3 28 4 29 5 30 2 31 1 32
REMARK H PARENT 12 9 2 33
REMARK Flexibility Score: inf
ROOT
ATOM      1  C   UNL     1      -0.204   6.329   2.495  1.00  0.00    -0.029 A 
ATOM      2  C   UNL     1      -1.113   5.651   1.704  1.00  0.00     0.006 A 
ATOM      3  C   UNL     1      -1.049   4.274   1.603  1.00  0.00     0.005 A 
ATOM      4  C   UNL     1      -0.075   3.575   2.292  1.00  0.00    -0.032 A 
ATOM      5  C   UNL     1       0.831   4.253   3.086  1.00  0.00     0.005 A 
ATOM      6  C   UNL     1       0.768   5.630   3.184  1.00  0.00     0.006 A 
ENDROOT
BRANCH   1   7
ATOM      7  C   UNL     1      -0.275   7.831   2.605  1.00  0.00     0.150 C 
BRANCH   7   8
ATOM      8  N   UNL     1      -1.149   8.198   3.722  1.00  0.00    -0.365 N 
ATOM      9  H   UNL     1      -1.600   7.464   4.286  1.00  0.00     0.162 HD
BRANCH   8  10
ATOM     10  C   UNL     1      -1.367   9.531   4.019  1.00  0.00     0.139 A 
ATOM     11  C   UNL     1      -3.102   7.560   5.721  1.00  0.00     0.046 C 
ATOM     12  C   UNL     1      -3.153   9.060   5.853  1.00  0.00    -0.024 A 
ATOM     13  C   UNL     1      -2.310   9.899   5.020  1.00  0.00     0.057 A 
ATOM     14  C   UNL     1      -3.978   9.635   6.741  1.00  0.00     0.007 A 
ATOM     15  C   UNL     1      -2.449  11.288   5.244  1.00  0.00     0.130 A 
ATOM     16  S   UNL     1      -3.668  11.378   6.529  1.00  0.00    -0.120 S 
ATOM     17  C   UNL     1      -4.931   8.967   7.697  1.00  0.00     0.057 C 
ATOM     18  N   UNL     1      -1.753  12.169   4.557  1.00  0.00    -0.217 NA
ATOM     19  N   UNL     1      -0.708  10.476   3.373  1.00  0.00    -0.211 NA
ATOM     20  C   UNL     1      -0.891  11.767   3.631  1.00  0.00     0.163 A 
BRANCH  20  21
ATOM     21  C   UNL     1      -0.118  12.778   2.869  1.00  0.00     0.019 A 
ATOM     22  C   UNL     1      -0.298  14.136   3.127  1.00  0.00     0.012 A 
ATOM     23  C   UNL     1       0.795  12.373   1.897  1.00  0.00     0.012 A 
ATOM     24  C   UNL     1       0.424  15.072   2.415  1.00  0.00     0.001 A 
ATOM     25  C   UNL     1       1.507  13.319   1.187  1.00  0.00     0.001 A 
ATOM     26  C   UNL     1       1.324  14.665   1.447  1.00  0.00     0.000 A 
ENDBRANCH  20  21
ENDBRANCH   8  10
ENDBRANCH   7   8
ENDBRANCH   1   7
BRANCH   4  27
ATOM     27  C   UNL     1      -0.005   2.074   2.181  1.00  0.00     0.189 C 
BRANCH  27  28
ATOM     28  S   UNL     1       1.077   1.619   0.797  1.00  0.00     0.215 S 
ATOM     29  O   UNL     1       2.421   1.976   1.089  1.00  0.00    -0.212 OA
ATOM     30  O   UNL     1       0.479   1.997  -0.435  1.00  0.00    -0.212 OA
BRANCH  28  31
ATOM     31  N   UNL     1       1.073  -0.036   0.780  1.00  0.00    -0.218 NA
ATOM     32  C   UNL     1      -0.165  -0.762   0.483  1.00  0.00     0.120 C 
ATOM     33  H   UNL     1       1.940  -0.556   0.977  1.00  0.00     0.140 HD
ENDBRANCH  28  31
ENDBRANCH  27  28
ENDBRANCH   4  27
TORSDOF 7
