REMARK SMILES C=CCNC(=S)N1CCN([C@@H]2c3cccc4cccc(c34)[C@H]2NS(=O)(=O)c2ccc(Cl)cc2)CC1
REMARK SMILES IDX 7 1 8 2 9 3 34 4 35 5 10 6 5 7 6 8 4 9 3 11 2 12 1 13 11 14
REMARK SMILES IDX 22 15 12 16 20 17 21 18 13 19 19 20 16 21 14 22 18 23 15 24
REMARK SMILES IDX 17 25 23 26 24 28 25 29 26 30 27 31 33 32 28 33 32 34 29 35
REMARK SMILES IDX 30 36 31 37
REMARK H PARENT 4 10 23 27
REMARK Flexibility Score: inf
ROOT
ATOM      1  N   UNL     1      -4.162   1.405  -2.284  1.00  0.00    -0.347 N 
ATOM      2  C   UNL     1      -3.702   0.311  -3.153  1.00  0.00     0.134 C 
ATOM      3  C   UNL     1      -4.780  -0.784  -3.162  1.00  0.00     0.107 C 
ATOM      4  C   UNL     1      -6.509   0.804  -2.553  1.00  0.00     0.107 C 
ATOM      5  C   UNL     1      -5.504   1.960  -2.515  1.00  0.00     0.134 C 
ATOM      6  N   UNL     1      -6.067  -0.177  -3.567  1.00  0.00    -0.291 NA
ENDROOT
BRANCH   1   7
ATOM      7  C   UNL     1      -3.372   1.889  -1.305  1.00  0.00     0.169 C 
ATOM      8  S   UNL     1      -1.768   1.317  -1.137  1.00  0.00    -0.041 S 
BRANCH   7   9
ATOM      9  N   UNL     1      -3.846   2.825  -0.458  1.00  0.00    -0.359 N 
ATOM     10  H   UNL     1      -4.783   3.226  -0.606  1.00  0.00     0.163 HD
BRANCH   9  11
ATOM     11  C   UNL     1      -3.029   3.270   0.673  1.00  0.00     0.142 C 
BRANCH  11  12
ATOM     12  C   UNL     1      -3.783   4.312   1.459  1.00  0.00    -0.014 C 
ATOM     13  C   UNL     1      -3.985   4.145   2.742  1.00  0.00     0.006 C 
ENDBRANCH  11  12
ENDBRANCH   9  11
ENDBRANCH   7   9
ENDBRANCH   1   7
BRANCH   6  14
ATOM     14  C   UNL     1      -7.091  -1.230  -3.732  1.00  0.00     0.110 C 
ATOM     15  C   UNL     1      -6.598  -2.284  -4.747  1.00  0.00     0.122 C 
ATOM     16  C   UNL     1      -7.314  -1.987  -2.445  1.00  0.00    -0.021 A 
ATOM     17  C   UNL     1      -6.566  -3.586  -3.986  1.00  0.00    -0.020 A 
ATOM     18  C   UNL     1      -6.988  -3.319  -2.687  1.00  0.00    -0.009 A 
ATOM     19  C   UNL     1      -7.734  -1.651  -1.196  1.00  0.00     0.006 A 
ATOM     20  C   UNL     1      -6.231  -4.868  -4.297  1.00  0.00     0.006 A 
ATOM     21  C   UNL     1      -7.078  -4.315  -1.698  1.00  0.00    -0.018 A 
ATOM     22  C   UNL     1      -7.832  -2.622  -0.198  1.00  0.00     0.001 A 
ATOM     23  C   UNL     1      -6.313  -5.874  -3.331  1.00  0.00     0.001 A 
ATOM     24  C   UNL     1      -7.517  -3.932  -0.420  1.00  0.00     0.009 A 
ATOM     25  C   UNL     1      -6.725  -5.627  -2.054  1.00  0.00     0.009 A 
BRANCH  15  26
ATOM     26  N   UNL     1      -7.531  -2.377  -5.874  1.00  0.00    -0.202 NA
ATOM     27  H   UNL     1      -8.542  -2.258  -5.717  1.00  0.00     0.142 HD
BRANCH  26  28
ATOM     28  S   UNL     1      -6.959  -2.675  -7.399  1.00  0.00     0.241 S 
ATOM     29  O   UNL     1      -8.093  -2.734  -8.254  1.00  0.00    -0.207 OA
ATOM     30  O   UNL     1      -5.888  -1.767  -7.616  1.00  0.00    -0.207 OA
BRANCH  28  31
ATOM     31  C   UNL     1      -6.254  -4.290  -7.385  1.00  0.00     0.082 A 
ATOM     32  C   UNL     1      -7.038  -5.388  -7.686  1.00  0.00     0.023 A 
ATOM     33  C   UNL     1      -4.917  -4.458  -7.079  1.00  0.00     0.023 A 
ATOM     34  C   UNL     1      -6.486  -6.656  -7.675  1.00  0.00     0.022 A 
ATOM     35  C   UNL     1      -4.365  -5.725  -7.062  1.00  0.00     0.022 A 
ATOM     36  C   UNL     1      -5.149  -6.825  -7.363  1.00  0.00     0.041 A 
ATOM     37  Cl  UNL     1      -4.455  -8.416  -7.350  1.00  0.00    -0.084 Cl
ENDBRANCH  28  31
ENDBRANCH  26  28
ENDBRANCH  15  26
ENDBRANCH   6  14
TORSDOF 8
