REMARK SMILES CCc1ccc([C@H](CNC(=O)C2CCN(C(=O)c3ccc(Br)cc3)CC2)[NH+](C)C)cc1
REMARK SMILES IDX 8 1 7 2 6 3 3 4 31 5 4 6 30 7 5 8 2 9 1 10 27 11 28 12 29 13
REMARK SMILES IDX 9 15 10 16 11 18 12 19 26 20 13 21 25 22 14 23 15 24 16 25
REMARK SMILES IDX 17 26 18 27 24 28 19 29 23 30 20 31 21 32 22 33
REMARK H PARENT 27 14 9 17
REMARK Flexibility Score: inf
ROOT
ATOM      1  C   UNL     1       7.696   6.418  -3.029  1.00  0.00     0.186 C 
ENDROOT
BRANCH   1   2
ATOM      2  C   UNL     1       9.062   5.729  -2.974  1.00  0.00     0.234 C 
BRANCH   2   3
ATOM      3  C   UNL     1       9.987   6.369  -3.978  1.00  0.00     0.011 A 
ATOM      4  C   UNL     1      11.684   7.542  -5.818  1.00  0.00    -0.048 A 
ATOM      5  C   UNL     1      11.552   8.086  -4.554  1.00  0.00     0.004 A 
ATOM      6  C   UNL     1      10.967   6.410  -6.162  1.00  0.00     0.004 A 
ATOM      7  C   UNL     1      10.699   7.503  -3.636  1.00  0.00     0.010 A 
ATOM      8  C   UNL     1      10.119   5.824  -5.241  1.00  0.00     0.010 A 
BRANCH   4   9
ATOM      9  C   UNL     1      12.609   8.181  -6.822  1.00  0.00     0.032 C 
ATOM     10  C   UNL     1      11.839   9.226  -7.631  1.00  0.00     0.009 C 
ENDBRANCH   4   9
ENDBRANCH   2   3
BRANCH   2  11
ATOM     11  N   UNL     1       9.656   5.874  -1.629  1.00  0.00    -0.332 N 
ATOM     12  C   UNL     1       9.105   7.071  -0.959  1.00  0.00     0.333 C 
ATOM     13  C   UNL     1       9.376   4.668  -0.821  1.00  0.00     0.333 C 
ATOM     14  H   UNL     1      10.676   5.983  -1.724  1.00  0.00     0.348 HD
ENDBRANCH   2  11
ENDBRANCH   1   2
BRANCH   1  15
ATOM     15  N   UNL     1       6.772   5.743  -2.114  1.00  0.00    -0.350 N 
ATOM     16  C   UNL     1       5.487   6.142  -2.039  1.00  0.00     0.223 C 
ATOM     17  H   UNL     1       7.105   4.963  -1.529  1.00  0.00     0.163 HD
ATOM     18  O   UNL     1       5.096   7.059  -2.729  1.00  0.00    -0.275 OA
BRANCH  16  19
ATOM     19  C   UNL     1       4.536   5.447  -1.098  1.00  0.00     0.082 C 
ATOM     20  C   UNL     1       4.444   3.965  -1.468  1.00  0.00     0.035 C 
ATOM     21  C   UNL     1       3.151   6.090  -1.207  1.00  0.00     0.035 C 
ATOM     22  C   UNL     1       3.503   3.255  -0.483  1.00  0.00     0.120 C 
ATOM     23  C   UNL     1       2.197   5.404  -0.224  1.00  0.00     0.120 C 
ATOM     24  N   UNL     1       2.213   3.957  -0.480  1.00  0.00    -0.339 N 
ATOM     25  C   UNL     1       1.065   3.287  -0.703  1.00  0.00     0.253 C 
ATOM     26  O   UNL     1       0.014   3.891  -0.788  1.00  0.00    -0.269 OA
BRANCH  25  27
ATOM     27  C   UNL     1       1.085   1.815  -0.843  1.00  0.00     0.040 A 
ATOM     28  C   UNL     1       2.002   1.054  -0.116  1.00  0.00     0.015 A 
ATOM     29  C   UNL     1       0.186   1.181  -1.702  1.00  0.00     0.015 A 
ATOM     30  C   UNL     1       2.015  -0.318  -0.251  1.00  0.00     0.016 A 
ATOM     31  C   UNL     1       0.209  -0.192  -1.829  1.00  0.00     0.016 A 
ATOM     32  C   UNL     1       1.121  -0.942  -1.105  1.00  0.00     0.018 A 
ATOM     33  Br  UNL     1       1.146  -2.824  -1.284  1.00  0.00    -0.051 Br
ENDBRANCH  25  27
ENDBRANCH  16  19
ENDBRANCH   1  15
TORSDOF 7
