REMARK SMILES COc1ccccc1N(C(=O)c1ccc(-c2ccccc2)[nH]1)[C@H](C(=O)NC1CCCCC1)c1ccc(F)cc1
REMARK SMILES IDX 9 1 8 2 3 3 4 4 7 5 5 6 6 7 2 8 1 9 23 10 33 11 39 12 34 13
REMARK SMILES IDX 38 14 35 15 36 16 37 17 24 18 25 19 26 20 27 22 32 23 28 24
REMARK SMILES IDX 31 25 29 26 30 27 10 28 11 29 12 30 22 31 13 32 15 33 14 35
REMARK SMILES IDX 16 36 21 37 17 38 20 39 18 40 19 41
REMARK H PARENT 26 21 22 34
REMARK Flexibility Score: inf
ROOT
ATOM      1  N   UNL     1       0.925   6.712   0.759  1.00  0.00    -0.287 N 
ENDROOT
BRANCH   1   2
ATOM      2  C   UNL     1       0.867   7.208   2.067  1.00  0.00     0.087 A 
ATOM      3  C   UNL     1       0.293   8.453   2.317  1.00  0.00     0.142 A 
ATOM      4  C   UNL     1       0.234   8.937   3.614  1.00  0.00     0.048 A 
ATOM      5  C   UNL     1       1.385   6.464   3.118  1.00  0.00     0.030 A 
ATOM      6  C   UNL     1       0.752   8.189   4.655  1.00  0.00     0.004 A 
ATOM      7  C   UNL     1       1.325   6.956   4.408  1.00  0.00     0.002 A 
BRANCH   3   8
ATOM      8  O   UNL     1      -0.211   9.189   1.291  1.00  0.00    -0.495 OA
ATOM      9  C   UNL     1      -0.783  10.456   1.621  1.00  0.00     0.278 C 
ENDBRANCH   3   8
ENDBRANCH   1   2
BRANCH   1  10
ATOM     10  C   UNL     1       2.136   6.904  -0.044  1.00  0.00     0.210 C 
BRANCH  10  11
ATOM     11  C   UNL     1       1.754   7.382  -1.421  1.00  0.00    -0.015 A 
ATOM     12  C   UNL     1       2.314   6.790  -2.538  1.00  0.00     0.009 A 
ATOM     13  C   UNL     1       0.839   8.408  -1.567  1.00  0.00     0.009 A 
ATOM     14  C   UNL     1       1.965   7.227  -3.801  1.00  0.00     0.039 A 
ATOM     15  C   UNL     1       0.492   8.851  -2.829  1.00  0.00     0.039 A 
ATOM     16  C   UNL     1       1.053   8.259  -3.949  1.00  0.00     0.123 A 
ATOM     17  F   UNL     1       0.710   8.687  -5.183  1.00  0.00    -0.207 F 
ENDBRANCH  10  11
BRANCH  10  18
ATOM     18  C   UNL     1       3.019   7.931   0.617  1.00  0.00     0.248 C 
ATOM     19  O   UNL     1       2.528   8.919   1.121  1.00  0.00    -0.272 OA
ATOM     20  N   UNL     1       4.354   7.751   0.649  1.00  0.00    -0.351 N 
ATOM     21  H   UNL     1       4.771   6.911   0.221  1.00  0.00     0.163 HD
BRANCH  20  22
ATOM     22  C   UNL     1       5.213   8.748   1.291  1.00  0.00     0.082 C 
ATOM     23  C   UNL     1       6.513   8.084   1.749  1.00  0.00     0.025 C 
ATOM     24  C   UNL     1       5.534   9.863   0.293  1.00  0.00     0.025 C 
ATOM     25  C   UNL     1       7.410   9.126   2.421  1.00  0.00     0.002 C 
ATOM     26  C   UNL     1       6.431  10.905   0.965  1.00  0.00     0.002 C 
ATOM     27  C   UNL     1       7.731  10.241   1.423  1.00  0.00     0.000 C 
ENDBRANCH  20  22
ENDBRANCH  10  18
ENDBRANCH   1  10
BRANCH   1  28
ATOM     28  C   UNL     1      -0.131   6.057   0.239  1.00  0.00     0.275 C 
ATOM     29  O   UNL     1      -0.049   5.545  -0.863  1.00  0.00    -0.267 OA
BRANCH  28  30
ATOM     30  C   UNL     1      -1.380   5.960   1.000  1.00  0.00     0.105 A 
ATOM     31  N   UNL     1      -1.580   6.402   2.288  1.00  0.00    -0.351 N 
ATOM     32  C   UNL     1      -2.564   5.409   0.550  1.00  0.00     0.034 A 
ATOM     33  C   UNL     1      -2.871   6.140   2.643  1.00  0.00     0.046 A 
ATOM     34  H   UNL     1      -0.873   6.855   2.885  1.00  0.00     0.167 HD
ATOM     35  C   UNL     1      -3.494   5.520   1.581  1.00  0.00     0.029 A 
BRANCH  33  36
ATOM     36  C   UNL     1      -3.493   6.462   3.944  1.00  0.00    -0.002 A 
ATOM     37  C   UNL     1      -4.829   6.135   4.182  1.00  0.00     0.010 A 
ATOM     38  C   UNL     1      -2.746   7.090   4.942  1.00  0.00     0.010 A 
ATOM     39  C   UNL     1      -5.404   6.438   5.399  1.00  0.00     0.001 A 
ATOM     40  C   UNL     1      -3.335   7.393   6.152  1.00  0.00     0.001 A 
ATOM     41  C   UNL     1      -4.659   7.065   6.382  1.00  0.00     0.000 A 
ENDBRANCH  33  36
ENDBRANCH  28  30
ENDBRANCH   1  28
TORSDOF 9
