REMARK SMILES COc1cc(Br)c(CC[NH2+]Cc2cc(Cl)c(OCC(N)=O)c(OC)c2)cc1OC
REMARK SMILES IDX 11 1 12 2 22 3 16 4 25 5 14 6 13 7 15 8 23 9 24 10 17 11
REMARK SMILES IDX 18 12 19 13 21 14 20 15 10 18 9 21 8 22 7 23 5 24 26 25 4 26
REMARK SMILES IDX 6 27 27 28 3 29 28 30 29 31 2 32 1 33
REMARK H PARENT 20 16 20 17 10 19 10 20
REMARK Flexibility Score: inf
ROOT
ATOM      1  C   UNL     1       1.526   0.032   6.145  1.00  0.00     0.297 C 
ENDROOT
BRANCH   1   2
ATOM      2  C   UNL     1       0.937   0.439   4.819  1.00  0.00     0.012 A 
ATOM      3  C   UNL     1       0.806   1.987   2.993  1.00  0.00     0.162 A 
ATOM      4  C   UNL     1      -0.148   1.182   2.381  1.00  0.00     0.180 A 
ATOM      5  C   UNL     1       1.347   1.611   4.213  1.00  0.00     0.060 A 
ATOM      6  C   UNL     1      -0.559   0.009   2.996  1.00  0.00     0.087 A 
ATOM      7  C   UNL     1      -0.012  -0.362   4.211  1.00  0.00     0.034 A 
ATOM      8  Cl  UNL     1      -1.756  -0.996   2.239  1.00  0.00    -0.080 Cl
BRANCH   3   9
ATOM      9  O   UNL     1       1.210   3.140   2.396  1.00  0.00    -0.493 OA
ATOM     10  C   UNL     1       2.193   3.917   3.082  1.00  0.00     0.278 C 
ENDBRANCH   3   9
BRANCH   4  11
ATOM     11  O   UNL     1      -0.682   1.547   1.184  1.00  0.00    -0.478 OA
BRANCH  11  12
ATOM     12  C   UNL     1      -0.013   1.086   0.008  1.00  0.00     0.329 C 
BRANCH  12  13
ATOM     13  C   UNL     1      -0.742   1.585  -1.213  1.00  0.00     0.255 C 
ATOM     14  O   UNL     1      -1.736   2.268  -1.088  1.00  0.00    -0.271 OA
ATOM     15  N   UNL     1      -0.288   1.272  -2.443  1.00  0.00    -0.367 N 
ATOM     16  H   UNL     1       0.556   0.692  -2.549  1.00  0.00     0.159 HD
ATOM     17  H   UNL     1      -0.787   1.613  -3.278  1.00  0.00     0.159 HD
ENDBRANCH  12  13
ENDBRANCH  11  12
ENDBRANCH   4  11
ENDBRANCH   1   2
BRANCH   1  18
ATOM     18  N   UNL     1       0.713   0.591   7.234  1.00  0.00    -0.342 N 
ATOM     19  H   UNL     1       0.699   1.618   7.155  1.00  0.00     0.346 HD
ATOM     20  H   UNL     1      -0.251   0.238   7.154  1.00  0.00     0.346 HD
BRANCH  18  21
ATOM     21  C   UNL     1       1.259   0.214   8.545  1.00  0.00     0.265 C 
BRANCH  21  22
ATOM     22  C   UNL     1       0.388   0.813   9.651  1.00  0.00     0.098 C 
BRANCH  22  23
ATOM     23  C   UNL     1       0.948   0.427  10.996  1.00  0.00    -0.024 A 
ATOM     24  C   UNL     1       0.683  -0.825  11.519  1.00  0.00     0.025 A 
ATOM     25  C   UNL     1       1.721   1.327  11.706  1.00  0.00     0.055 A 
ATOM     26  C   UNL     1       1.199  -1.186  12.751  1.00  0.00     0.066 A 
ATOM     27  Br  UNL     1      -0.381  -2.049  10.547  1.00  0.00    -0.050 Br
ATOM     28  C   UNL     1       2.236   0.974  12.942  1.00  0.00     0.161 A 
ATOM     29  C   UNL     1       1.973  -0.288  13.467  1.00  0.00     0.161 A 
BRANCH  28  30
ATOM     30  O   UNL     1       2.996   1.858  13.642  1.00  0.00    -0.493 OA
ATOM     31  C   UNL     1       3.224   3.135  13.041  1.00  0.00     0.278 C 
ENDBRANCH  28  30
BRANCH  29  32
ATOM     32  O   UNL     1       2.477  -0.640  14.681  1.00  0.00    -0.493 OA
ATOM     33  C   UNL     1       2.168  -1.951  15.157  1.00  0.00     0.278 C 
ENDBRANCH  29  32
ENDBRANCH  22  23
ENDBRANCH  21  22
ENDBRANCH  18  21
ENDBRANCH   1  18
TORSDOF 11
