REMARK SMILES C[NH2+][C@@H]1C[C@H]2O[C@@](C)([C@H]1OC)n1c3ccccc3c3c4c(c5c6ccccc6n2c5c31)C(=O)NC4
REMARK SMILES IDX 8 1 7 2 9 3 3 4 4 5 5 6 6 7 29 8 28 9 27 10 26 11 25 12
REMARK SMILES IDX 24 13 23 14 22 15 30 16 31 17 12 18 13 19 14 20 15 21 16 22
REMARK SMILES IDX 17 23 18 24 19 25 20 26 21 27 32 28 33 29 34 30 35 31 10 33
REMARK SMILES IDX 11 34 2 35 1 36
REMARK H PARENT 34 32 2 37 2 38
REMARK Flexibility Score: inf
ROOT
ATOM      1  C   UNL     1      -1.421  -0.475   0.308  1.00  0.00     0.071 C 
ATOM      2  C   UNL     1       0.002  -0.004   0.002  1.00  0.00     0.177 C 
ATOM      3  C   UNL     1       0.050   1.492   0.285  1.00  0.00     0.228 C 
ATOM      4  C   UNL     1       1.507   1.966   0.279  1.00  0.00     0.221 C 
ATOM      5  C   UNL     1       2.264   1.192   1.364  1.00  0.00     0.123 C 
ATOM      6  C   UNL     1       2.190  -0.300   1.066  1.00  0.00     0.228 C 
ATOM      7  O   UNL     1       0.871  -0.740   0.833  1.00  0.00    -0.329 OA
ATOM      8  N   UNL     1       3.096  -0.653  -0.028  1.00  0.00    -0.312 N 
ATOM      9  C   UNL     1       4.437  -0.923   0.080  1.00  0.00     0.052 A 
ATOM     10  C   UNL     1       5.274  -0.943   1.196  1.00  0.00     0.027 A 
ATOM     11  C   UNL     1       6.605  -1.259   0.980  1.00  0.00     0.002 A 
ATOM     12  C   UNL     1       7.101  -1.546  -0.281  1.00  0.00     0.001 A 
ATOM     13  C   UNL     1       6.292  -1.532  -1.404  1.00  0.00     0.011 A 
ATOM     14  C   UNL     1       4.946  -1.216  -1.206  1.00  0.00     0.008 A 
ATOM     15  C   UNL     1       3.824  -1.110  -2.135  1.00  0.00     0.023 A 
ATOM     16  C   UNL     1       2.713  -0.769  -1.361  1.00  0.00     0.077 A 
ATOM     17  C   UNL     1       1.462  -0.601  -1.966  1.00  0.00     0.077 A 
ATOM     18  N   UNL     1       0.233  -0.266  -1.419  1.00  0.00    -0.307 N 
ATOM     19  C   UNL     1      -0.712  -0.227  -2.417  1.00  0.00     0.052 A 
ATOM     20  C   UNL     1      -2.077   0.053  -2.365  1.00  0.00     0.027 A 
ATOM     21  C   UNL     1      -2.776   0.009  -3.559  1.00  0.00     0.002 A 
ATOM     22  C   UNL     1      -2.164  -0.297  -4.762  1.00  0.00     0.001 A 
ATOM     23  C   UNL     1      -0.810  -0.577  -4.840  1.00  0.00     0.011 A 
ATOM     24  C   UNL     1      -0.090  -0.538  -3.646  1.00  0.00     0.008 A 
ATOM     25  C   UNL     1       1.325  -0.775  -3.353  1.00  0.00     0.016 A 
ATOM     26  C   UNL     1       2.434  -1.108  -4.122  1.00  0.00    -0.005 A 
ATOM     27  C   UNL     1       3.683  -1.277  -3.532  1.00  0.00     0.055 A 
ATOM     28  C   UNL     1       4.652  -1.618  -4.585  1.00  0.00     0.252 C 
ATOM     29  O   UNL     1       5.835  -1.830  -4.398  1.00  0.00    -0.269 OA
ATOM     30  N   UNL     1       4.045  -1.664  -5.783  1.00  0.00    -0.348 N 
ATOM     31  C   UNL     1       2.623  -1.353  -5.599  1.00  0.00     0.153 C 
ATOM     32  H   UNL     1       4.502  -1.880  -6.681  1.00  0.00     0.164 HD
ENDROOT
BRANCH   3  33
ATOM     33  O   UNL     1      -0.530   1.754   1.565  1.00  0.00    -0.370 OA
ATOM     34  C   UNL     1      -1.152   3.036   1.671  1.00  0.00     0.195 C 
ENDBRANCH   3  33
BRANCH   4  35
ATOM     35  N   UNL     1       2.107   1.690  -1.041  1.00  0.00    -0.344 N 
ATOM     36  C   UNL     1       3.229   2.613  -1.297  1.00  0.00     0.331 C 
ATOM     37  H   UNL     1       1.393   1.810  -1.773  1.00  0.00     0.346 HD
ATOM     38  H   UNL     1       2.452   0.720  -1.062  1.00  0.00     0.346 HD
ENDBRANCH   4  35
TORSDOF 2
