REMARK SMILES COc1ccc(CCn2c(N)c(C(=O)N[C@@H](C)CCCC(C)C)c3nc4ccccc4nc32)cc1OC
REMARK SMILES IDX 15 1 13 2 14 3 16 5 17 6 18 7 19 8 20 9 21 10 22 11 23 12
REMARK SMILES IDX 12 13 10 14 24 15 9 16 25 17 33 18 26 19 32 20 31 21 27 22
REMARK SMILES IDX 30 23 28 24 29 25 11 26 8 29 7 30 6 31 34 32 5 33 35 34 4 35
REMARK SMILES IDX 3 36 36 37 37 38 2 39 1 40
REMARK H PARENT 15 4 11 27 11 28
REMARK Flexibility Score: inf
ROOT
ATOM      1  N   UNL     1      -5.322   6.770   0.341  1.00  0.00    -0.349 N 
ATOM      2  C   UNL     1      -5.066   6.137   1.503  1.00  0.00     0.257 C 
ATOM      3  O   UNL     1      -5.287   6.696   2.562  1.00  0.00    -0.269 OA
ATOM      4  H   UNL     1      -5.135   6.297  -0.555  1.00  0.00     0.164 HD
ENDROOT
BRANCH   1   5
ATOM      5  C   UNL     1      -5.865   8.130   0.352  1.00  0.00     0.079 C 
ATOM      6  C   UNL     1      -4.720   9.136   0.478  1.00  0.00     0.031 C 
BRANCH   5   7
ATOM      7  C   UNL     1      -6.627   8.385  -0.951  1.00  0.00     0.024 C 
BRANCH   7   8
ATOM      8  C   UNL     1      -7.845   7.463  -1.018  1.00  0.00     0.002 C 
BRANCH   8   9
ATOM      9  C   UNL     1      -8.607   7.718  -2.321  1.00  0.00     0.003 C 
BRANCH   9  10
ATOM     10  C   UNL     1      -9.825   6.796  -2.388  1.00  0.00    -0.017 C 
ATOM     11  C   UNL     1     -10.655   7.136  -3.628  1.00  0.00     0.007 C 
ATOM     12  C   UNL     1      -9.360   5.340  -2.470  1.00  0.00     0.007 C 
ENDBRANCH   9  10
ENDBRANCH   8   9
ENDBRANCH   7   8
ENDBRANCH   5   7
ENDBRANCH   1   5
BRANCH   2  13
ATOM     13  C   UNL     1      -4.524   4.780   1.493  1.00  0.00     0.109 A 
ATOM     14  C   UNL     1      -3.180   4.421   1.490  1.00  0.00     0.120 A 
ATOM     15  C   UNL     1      -5.292   3.525   1.489  1.00  0.00     0.123 A 
ATOM     16  N   UNL     1      -3.051   3.066   1.476  1.00  0.00    -0.310 N 
ATOM     17  N   UNL     1      -6.576   3.228   1.493  1.00  0.00    -0.242 NA
ATOM     18  C   UNL     1      -4.288   2.456   1.478  1.00  0.00     0.161 A 
ATOM     19  C   UNL     1      -6.957   1.945   1.489  1.00  0.00     0.090 A 
ATOM     20  N   UNL     1      -4.681   1.200   1.473  1.00  0.00    -0.226 NA
ATOM     21  C   UNL     1      -5.988   0.910   1.478  1.00  0.00     0.091 A 
ATOM     22  C   UNL     1      -8.324   1.609   1.493  1.00  0.00     0.030 A 
ATOM     23  C   UNL     1      -6.417  -0.430   1.473  1.00  0.00     0.031 A 
ATOM     24  C   UNL     1      -8.699   0.302   1.488  1.00  0.00     0.002 A 
ATOM     25  C   UNL     1      -7.747  -0.716   1.478  1.00  0.00     0.002 A 
BRANCH  14  26
ATOM     26  N   UNL     1      -2.134   5.306   1.496  1.00  0.00    -0.384 N 
ATOM     27  H   UNL     1      -2.378   6.307   1.503  1.00  0.00     0.158 HD
ATOM     28  H   UNL     1      -1.151   5.000   1.493  1.00  0.00     0.158 HD
ENDBRANCH  14  26
BRANCH  16  29
ATOM     29  C   UNL     1      -1.771   2.353   1.466  1.00  0.00     0.130 C 
BRANCH  29  30
ATOM     30  C   UNL     1      -1.333   2.112   0.020  1.00  0.00     0.057 C 
BRANCH  30  31
ATOM     31  C   UNL     1      -0.017   1.378   0.010  1.00  0.00    -0.042 A 
ATOM     32  C   UNL     1       0.002  -0.004   0.002  1.00  0.00     0.054 A 
ATOM     33  C   UNL     1       1.169   2.089   0.002  1.00  0.00     0.008 A 
ATOM     34  C   UNL     1       1.211  -0.680  -0.013  1.00  0.00     0.160 A 
ATOM     35  C   UNL     1       2.379   1.420  -0.013  1.00  0.00     0.051 A 
ATOM     36  C   UNL     1       2.405   0.035  -0.021  1.00  0.00     0.160 A 
BRANCH  34  37
ATOM     37  O   UNL     1       1.232  -2.040  -0.020  1.00  0.00    -0.493 OA
ATOM     38  C   UNL     1      -0.032  -2.708  -0.011  1.00  0.00     0.278 C 
ENDBRANCH  34  37
BRANCH  36  39
ATOM     39  O   UNL     1       3.594  -0.625  -0.036  1.00  0.00    -0.493 OA
ATOM     40  C   UNL     1       4.779   0.174  -0.043  1.00  0.00     0.278 C 
ENDBRANCH  36  39
ENDBRANCH  30  31
ENDBRANCH  29  30
ENDBRANCH  16  29
ENDBRANCH   2  13
TORSDOF 12
