REMARK SMILES Nc1nc(SC(c2ccccc2)c2ccccc2)[nH]c(=O)c1NC(=O)c1ccc(Br)cc1
REMARK SMILES IDX 4 1 19 2 20 3 21 4 22 5 2 6 3 7 5 9 6 10 7 11 10 12 11 13
REMARK SMILES IDX 9 14 12 15 8 16 13 17 18 18 14 19 17 20 15 21 16 22 1 23
REMARK SMILES IDX 23 26 24 27 25 29 26 30 32 31 27 32 31 33 28 34 29 35 30 36
REMARK H PARENT 19 8 1 24 1 25 23 28
REMARK Flexibility Score: inf
ROOT
ATOM      1  C   UNL     1       5.700  -1.950  -0.819  1.00  0.00     0.171 A 
ATOM      2  N   UNL     1       6.812  -2.240  -1.551  1.00  0.00    -0.300 N 
ATOM      3  C   UNL     1       7.687  -3.170  -1.115  1.00  0.00     0.277 A 
ATOM      4  O   UNL     1       8.689  -3.433  -1.763  1.00  0.00    -0.267 OA
ATOM      5  C   UNL     1       7.424  -3.833   0.093  1.00  0.00     0.150 A 
ATOM      6  C   UNL     1       6.271  -3.502   0.798  1.00  0.00     0.156 A 
ATOM      7  N   UNL     1       5.445  -2.567   0.316  1.00  0.00    -0.205 NA
ATOM      8  H   UNL     1       6.984  -1.748  -2.439  1.00  0.00     0.172 HD
ENDROOT
BRANCH   1   9
ATOM      9  S   UNL     1       4.576  -0.728  -1.407  1.00  0.00    -0.075 SA
BRANCH   9  10
ATOM     10  C   UNL     1       3.341  -0.774  -0.085  1.00  0.00     0.115 C 
BRANCH  10  11
ATOM     11  C   UNL     1       2.188   0.129  -0.441  1.00  0.00    -0.030 A 
ATOM     12  C   UNL     1       0.075   1.786  -1.096  1.00  0.00     0.000 A 
ATOM     13  C   UNL     1      -0.163   0.475  -0.727  1.00  0.00     0.000 A 
ATOM     14  C   UNL     1       1.369   2.269  -1.137  1.00  0.00     0.000 A 
ATOM     15  C   UNL     1       0.894  -0.353  -0.400  1.00  0.00     0.005 A 
ATOM     16  C   UNL     1       2.426   1.440  -0.810  1.00  0.00     0.005 A 
ENDBRANCH  10  11
BRANCH  10  17
ATOM     17  C   UNL     1       3.967  -0.305   1.204  1.00  0.00    -0.030 A 
ATOM     18  C   UNL     1       3.838  -1.065   2.351  1.00  0.00     0.005 A 
ATOM     19  C   UNL     1       4.674   0.882   1.237  1.00  0.00     0.005 A 
ATOM     20  C   UNL     1       4.413  -0.636   3.533  1.00  0.00     0.000 A 
ATOM     21  C   UNL     1       5.243   1.315   2.420  1.00  0.00     0.000 A 
ATOM     22  C   UNL     1       5.115   0.554   3.567  1.00  0.00     0.000 A 
ENDBRANCH  10  17
ENDBRANCH   9  10
ENDBRANCH   1   9
BRANCH   6  23
ATOM     23  N   UNL     1       5.981  -4.137   1.992  1.00  0.00    -0.382 N 
ATOM     24  H   UNL     1       6.620  -4.856   2.359  1.00  0.00     0.158 HD
ATOM     25  H   UNL     1       5.128  -3.891   2.513  1.00  0.00     0.158 HD
ENDBRANCH   6  23
BRANCH   5  26
ATOM     26  N   UNL     1       8.309  -4.813   0.582  1.00  0.00    -0.314 N 
ATOM     27  C   UNL     1       8.593  -5.898  -0.167  1.00  0.00     0.255 C 
ATOM     28  H   UNL     1       8.739  -4.701   1.511  1.00  0.00     0.170 HD
ATOM     29  O   UNL     1       8.016  -6.077  -1.222  1.00  0.00    -0.269 OA
BRANCH  27  30
ATOM     30  C   UNL     1       9.606  -6.870   0.296  1.00  0.00     0.040 A 
ATOM     31  C   UNL     1       9.902  -7.994  -0.477  1.00  0.00     0.015 A 
ATOM     32  C   UNL     1      10.274  -6.664   1.504  1.00  0.00     0.015 A 
ATOM     33  C   UNL     1      10.848  -8.897  -0.040  1.00  0.00     0.016 A 
ATOM     34  C   UNL     1      11.213  -7.578   1.934  1.00  0.00     0.016 A 
ATOM     35  C   UNL     1      11.503  -8.691   1.163  1.00  0.00     0.018 A 
ATOM     36  Br  UNL     1      12.799  -9.935   1.755  1.00  0.00    -0.051 Br
ENDBRANCH  27  30
ENDBRANCH   5  26
TORSDOF 7
