REMARK SMILES NC(=O)NC(=O)[C@@H](Sc1nc2sc3c(c2c(=O)n1Cc1ccccc1)CCC3)c1ccccc1
REMARK SMILES IDX 18 1 16 2 17 3 15 4 14 5 13 6 12 7 11 8 10 9 9 10 28 11
REMARK SMILES IDX 27 12 26 13 19 14 20 15 23 16 24 17 22 18 25 19 21 20 8 21
REMARK SMILES IDX 7 22 29 23 34 24 30 25 33 26 31 27 32 28 5 29 6 30 4 31 2 32
REMARK SMILES IDX 3 34 1 35
REMARK H PARENT 4 33 1 36 1 37
REMARK Flexibility Score: inf
ROOT
ATOM      1  N   UNL     1       2.405  -4.069  -0.753  1.00  0.00    -0.283 N 
ATOM      2  C   UNL     1       2.482  -2.725  -0.778  1.00  0.00     0.263 A 
ATOM      3  O   UNL     1       3.518  -2.170  -1.104  1.00  0.00    -0.268 OA
ATOM      4  C   UNL     1       1.330  -1.958  -0.417  1.00  0.00     0.080 A 
ATOM      5  C   UNL     1       1.194  -0.493  -0.376  1.00  0.00    -0.019 A 
ATOM      6  C   UNL     1       0.002  -0.004   0.002  1.00  0.00     0.011 A 
ATOM      7  S   UNL     1      -1.004  -1.436   0.318  1.00  0.00    -0.120 S 
ATOM      8  C   UNL     1       0.190  -2.692  -0.058  1.00  0.00     0.132 A 
ATOM      9  N   UNL     1       0.178  -4.020  -0.054  1.00  0.00    -0.213 NA
ATOM     10  C   UNL     1       1.253  -4.705  -0.391  1.00  0.00     0.173 A 
ATOM     11  C   UNL     1      -0.018   1.501   0.010  1.00  0.00     0.047 C 
ATOM     12  C   UNL     1       1.471   1.909  -0.002  1.00  0.00     0.010 C 
ATOM     13  C   UNL     1       2.125   0.686  -0.674  1.00  0.00     0.038 C 
ENDROOT
BRANCH   1  14
ATOM     14  C   UNL     1       3.579  -4.863  -1.121  1.00  0.00     0.163 C 
BRANCH  14  15
ATOM     15  C   UNL     1       4.407  -5.134   0.109  1.00  0.00    -0.028 A 
ATOM     16  C   UNL     1       5.927  -5.632   2.364  1.00  0.00     0.000 A 
ATOM     17  C   UNL     1       6.167  -4.502   1.605  1.00  0.00     0.000 A 
ATOM     18  C   UNL     1       4.928  -6.513   1.996  1.00  0.00     0.000 A 
ATOM     19  C   UNL     1       5.410  -4.256   0.474  1.00  0.00     0.005 A 
ATOM     20  C   UNL     1       4.168  -6.264   0.868  1.00  0.00     0.005 A 
ENDBRANCH  14  15
ENDBRANCH   1  14
BRANCH  10  21
ATOM     21  S   UNL     1       1.201  -6.466  -0.375  1.00  0.00    -0.069 SA
BRANCH  21  22
ATOM     22  C   UNL     1      -0.508  -6.725   0.162  1.00  0.00     0.174 C 
BRANCH  22  23
ATOM     23  C   UNL     1      -1.450  -6.203  -0.892  1.00  0.00    -0.025 A 
ATOM     24  C   UNL     1      -2.347  -5.198  -0.580  1.00  0.00     0.005 A 
ATOM     25  C   UNL     1      -1.414  -6.725  -2.171  1.00  0.00     0.005 A 
ATOM     26  C   UNL     1      -3.211  -4.719  -1.547  1.00  0.00     0.000 A 
ATOM     27  C   UNL     1      -2.282  -6.249  -3.137  1.00  0.00     0.000 A 
ATOM     28  C   UNL     1      -3.179  -5.244  -2.825  1.00  0.00     0.000 A 
ENDBRANCH  22  23
BRANCH  22  29
ATOM     29  C   UNL     1      -0.752  -8.198   0.368  1.00  0.00     0.246 C 
ATOM     30  O   UNL     1      -0.021  -9.012  -0.154  1.00  0.00    -0.273 OA
ATOM     31  N   UNL     1      -1.782  -8.610   1.133  1.00  0.00    -0.277 N 
ATOM     32  C   UNL     1      -2.000  -9.927   1.317  1.00  0.00     0.318 C 
ATOM     33  H   UNL     1      -2.403  -7.918   1.577  1.00  0.00     0.174 HD
ATOM     34  O   UNL     1      -1.267 -10.743   0.794  1.00  0.00    -0.249 OA
ATOM     35  N   UNL     1      -3.030 -10.339   2.083  1.00  0.00    -0.351 N 
ATOM     36  H   UNL     1      -3.651  -9.648   2.526  1.00  0.00     0.161 HD
ATOM     37  H   UNL     1      -3.196 -11.346   2.224  1.00  0.00     0.161 HD
ENDBRANCH  22  29
ENDBRANCH  21  22
ENDBRANCH  10  21
TORSDOF 6
