REMARK SMILES CN(C)c1ccc(/C=C(\NC(=O)c2ccccc2Cl)C(=O)N/N=C/c2ccc(O)cc2)cc1
REMARK SMILES IDX 20 1 21 2 22 3 9 5 8 6 7 7 4 8 33 9 5 10 32 11 6 12 2 13
REMARK SMILES IDX 1 14 3 15 10 16 11 17 12 19 13 20 18 21 14 22 17 23 19 24
REMARK SMILES IDX 15 25 16 26 23 27 24 28 25 29 31 30 26 31 30 32 27 33 28 34
REMARK SMILES IDX 29 35
REMARK H PARENT 22 4 10 18 29 36
REMARK Flexibility Score: inf
ROOT
ATOM      1  C   UNL     1       2.108   0.783   0.825  1.00  0.00     0.287 C 
ATOM      2  O   UNL     1       3.188   1.338   0.732  1.00  0.00    -0.266 OA
ATOM      3  N   UNL     1       2.046  -0.561   0.906  1.00  0.00    -0.242 N 
ATOM      4  H   UNL     1       1.133  -1.030   0.985  1.00  0.00     0.194 HD
ENDROOT
BRANCH   1   5
ATOM      5  C   UNL     1       0.875   1.577   0.848  1.00  0.00     0.109 C 
ATOM      6  C   UNL     1       0.937   2.928   0.767  1.00  0.00     0.040 C 
BRANCH   6   7
ATOM      7  C   UNL     1      -0.296   3.713   0.616  1.00  0.00    -0.023 A 
ATOM      8  C   UNL     1      -2.622   5.193   0.331  1.00  0.00     0.036 A 
ATOM      9  C   UNL     1      -2.640   3.821   0.099  1.00  0.00     0.026 A 
ATOM     10  C   UNL     1      -1.439   5.824   0.705  1.00  0.00     0.026 A 
ATOM     11  C   UNL     1      -1.487   3.083   0.235  1.00  0.00     0.010 A 
ATOM     12  C   UNL     1      -0.282   5.093   0.848  1.00  0.00     0.010 A 
BRANCH   8  13
ATOM     13  N   UNL     1      -3.791   5.937   0.188  1.00  0.00    -0.378 N 
ATOM     14  C   UNL     1      -3.804   7.357   0.547  1.00  0.00     0.143 C 
ATOM     15  C   UNL     1      -5.007   5.299  -0.322  1.00  0.00     0.143 C 
ENDBRANCH   8  13
ENDBRANCH   6   7
BRANCH   5  16
ATOM     16  N   UNL     1      -0.366   0.939   0.955  1.00  0.00    -0.317 N 
ATOM     17  C   UNL     1      -0.729   0.015   0.044  1.00  0.00     0.257 C 
ATOM     18  H   UNL     1      -1.002   1.176   1.730  1.00  0.00     0.170 HD
ATOM     19  O   UNL     1       0.061  -0.341  -0.809  1.00  0.00    -0.269 OA
BRANCH  17  20
ATOM     20  C   UNL     1      -2.087  -0.567   0.082  1.00  0.00     0.058 A 
ATOM     21  C   UNL     1      -2.424  -1.618  -0.774  1.00  0.00     0.053 A 
ATOM     22  C   UNL     1      -3.037  -0.071   0.977  1.00  0.00     0.015 A 
ATOM     23  C   UNL     1      -3.696  -2.156  -0.733  1.00  0.00     0.021 A 
ATOM     24  Cl  UNL     1      -1.248  -2.247  -1.886  1.00  0.00    -0.083 Cl
ATOM     25  C   UNL     1      -4.304  -0.615   1.003  1.00  0.00     0.001 A 
ATOM     26  C   UNL     1      -4.633  -1.656   0.152  1.00  0.00     0.002 A 
ENDBRANCH  17  20
ENDBRANCH   5  16
ENDBRANCH   1   5
BRANCH   3  27
ATOM     27  N   UNL     1       3.224  -1.319   0.884  1.00  0.00    -0.180 NA
ATOM     28  C   UNL     1       3.165  -2.614   0.962  1.00  0.00     0.141 C 
BRANCH  28  29
ATOM     29  C   UNL     1       4.404  -3.412   0.939  1.00  0.00    -0.005 A 
ATOM     30  C   UNL     1       4.342  -4.805   1.022  1.00  0.00     0.013 A 
ATOM     31  C   UNL     1       5.644  -2.777   0.826  1.00  0.00     0.013 A 
ATOM     32  C   UNL     1       5.503  -5.547   1.000  1.00  0.00     0.047 A 
ATOM     33  C   UNL     1       6.800  -3.526   0.809  1.00  0.00     0.047 A 
ATOM     34  C   UNL     1       6.734  -4.911   0.893  1.00  0.00     0.115 A 
BRANCH  34  35
ATOM     35  O   UNL     1       7.876  -5.647   0.870  1.00  0.00    -0.508 OA
ATOM     36  H   UNL     1       8.421  -5.295   1.617  1.00  0.00     0.293 HD
ENDBRANCH  34  35
ENDBRANCH  28  29
ENDBRANCH   3  27
TORSDOF 8
