REMARK SMILES NC(=O)[C@@H]1Cc2ccccc2CN1CC(=O)N1CCc2sccc2[C@@H]1c1cccs1
REMARK SMILES IDX 14 1 13 2 8 3 7 4 9 5 6 6 10 7 11 8 5 9 12 10 4 11 2 12 3 13
REMARK SMILES IDX 1 14 15 17 16 18 17 19 25 20 18 21 24 22 19 23 20 24 23 25
REMARK SMILES IDX 21 26 22 27 26 28 30 29 27 30 29 31 28 32
REMARK H PARENT 1 15 1 16
REMARK Flexibility Score: inf
ROOT
ATOM      1  C   UNL     1      -1.159   1.351   1.028  1.00  0.00     0.186 C 
ENDROOT
BRANCH   1   2
ATOM      2  N   UNL     1      -1.059   1.520  -0.428  1.00  0.00    -0.278 NA
ATOM      3  C   UNL     1      -1.224   3.430  -5.053  1.00  0.00     0.000 A 
ATOM      4  C   UNL     1      -1.427   2.174  -4.518  1.00  0.00     0.004 A 
ATOM      5  C   UNL     1      -1.028   4.512  -4.215  1.00  0.00     0.000 A 
ATOM      6  C   UNL     1      -1.434   1.992  -3.143  1.00  0.00    -0.041 A 
ATOM      7  C   UNL     1      -1.037   4.332  -2.846  1.00  0.00     0.005 A 
ATOM      8  C   UNL     1      -1.242   3.070  -2.307  1.00  0.00    -0.031 A 
ATOM      9  C   UNL     1      -1.650   0.601  -2.604  1.00  0.00     0.065 C 
ATOM     10  C   UNL     1      -1.248   2.924  -0.807  1.00  0.00     0.121 C 
ATOM     11  C   UNL     1      -2.035   0.668  -1.126  1.00  0.00     0.151 C 
BRANCH  11  12
ATOM     12  C   UNL     1      -2.012  -0.717  -0.533  1.00  0.00     0.235 C 
ATOM     13  O   UNL     1      -0.976  -1.174  -0.098  1.00  0.00    -0.274 OA
ATOM     14  N   UNL     1      -3.143  -1.449  -0.487  1.00  0.00    -0.368 N 
ATOM     15  H   UNL     1      -4.023  -1.061  -0.857  1.00  0.00     0.159 HD
ATOM     16  H   UNL     1      -3.128  -2.396  -0.082  1.00  0.00     0.159 HD
ENDBRANCH  11  12
ENDBRANCH   1   2
BRANCH   1  17
ATOM     17  C   UNL     1      -2.567   1.650   1.473  1.00  0.00     0.237 C 
ATOM     18  O   UNL     1      -3.379   2.071   0.676  1.00  0.00    -0.273 OA
BRANCH  17  19
ATOM     19  N   UNL     1      -2.925   1.450   2.757  1.00  0.00    -0.329 N 
ATOM     20  C   UNL     1      -4.295   1.738   3.203  1.00  0.00     0.157 C 
ATOM     21  C   UNL     1      -1.950   0.934   3.731  1.00  0.00     0.126 C 
ATOM     22  C   UNL     1      -4.205   2.539   4.500  1.00  0.00    -0.006 A 
ATOM     23  C   UNL     1      -1.707   2.030   4.788  1.00  0.00     0.068 C 
ATOM     24  C   UNL     1      -3.022   2.630   5.166  1.00  0.00     0.012 A 
ATOM     25  C   UNL     1      -5.294   3.201   5.065  1.00  0.00     0.018 A 
ATOM     26  S   UNL     1      -3.412   3.629   6.579  1.00  0.00    -0.148 S 
ATOM     27  C   UNL     1      -5.143   3.888   6.221  1.00  0.00     0.065 A 
BRANCH  20  28
ATOM     28  C   UNL     1      -5.033   0.447   3.449  1.00  0.00     0.032 A 
ATOM     29  S   UNL     1      -4.440  -1.063   4.194  1.00  0.00    -0.146 S 
ATOM     30  C   UNL     1      -6.318   0.130   3.158  1.00  0.00     0.018 A 
ATOM     31  C   UNL     1      -5.947  -2.012   4.075  1.00  0.00     0.065 A 
ATOM     32  C   UNL     1      -6.787  -1.130   3.478  1.00  0.00     0.012 A 
ENDBRANCH  20  28
ENDBRANCH  17  19
ENDBRANCH   1  17
TORSDOF 5
